# generated using pymatgen
data_BaNa2Sn
_symmetry_space_group_name_H-M   'P 1'
_cell_length_a   13.37522136
_cell_length_b   14.85766578
_cell_length_c   13.86715473
_cell_angle_alpha   61.52134544
_cell_angle_beta   60.84103033
_cell_angle_gamma   60.84103033
_symmetry_Int_Tables_number   1
_chemical_formula_structural   BaNa2Sn
_chemical_formula_sum   'Ba1 Na2 Sn1'
_cell_volume   1995.26955029
_cell_formula_units_Z   1
loop_
 _symmetry_equiv_pos_site_id
 _symmetry_equiv_pos_as_xyz
  1  'x, y, z'
loop_
 _atom_site_type_symbol
 _atom_site_label
 _atom_site_symmetry_multiplicity
 _atom_site_fract_x
 _atom_site_fract_y
 _atom_site_fract_z
 _atom_site_occupancy
  Ba  Ba0  1  0.50000000  1.00000000  0.00000000  1.0
  Na  Na1  1  0.78397800  1.00000000  1.00000000  1.0
  Na  Na2  1  0.21602200  0.00000000  1.00000000  1.0
  Sn  Sn3  1  0.00000000  0.00000000  0.00000000  1.0
