# generated using pymatgen
data_In3Ag
_symmetry_space_group_name_H-M   'P 1'
_cell_length_a   4.32367104
_cell_length_b   4.54886224
_cell_length_c   5.94422363
_cell_angle_alpha   112.96729317
_cell_angle_beta   112.96729319
_cell_angle_gamma   89.99999999
_symmetry_Int_Tables_number   1
_chemical_formula_structural   In3Ag
_chemical_formula_sum   'In3 Ag1'
_cell_volume   97.49731003
_cell_formula_units_Z   1
loop_
 _symmetry_equiv_pos_site_id
 _symmetry_equiv_pos_as_xyz
  1  'x, y, z'
loop_
 _atom_site_type_symbol
 _atom_site_label
 _atom_site_symmetry_multiplicity
 _atom_site_fract_x
 _atom_site_fract_y
 _atom_site_fract_z
 _atom_site_occupancy
  In  In0  1  0.75000000  0.25000000  0.50000000  1.0
  In  In1  1  0.25000000  0.75000000  0.50000000  1.0
  In  In2  1  0.50000000  0.50000000  0.00000000  1.0
  Ag  Ag3  1  0.00000000  0.00000000  0.00000000  1.0
