# generated using pymatgen
data_CsHo
_symmetry_space_group_name_H-M   'P 1'
_cell_length_a   3.73453344
_cell_length_b   3.96086832
_cell_length_c   7.63218923
_cell_angle_alpha   90.00000000
_cell_angle_beta   90.00000000
_cell_angle_gamma   120.00000399
_symmetry_Int_Tables_number   1
_chemical_formula_structural   CsHo
_chemical_formula_sum   'Cs1 Ho1'
_cell_volume   97.77019917
_cell_formula_units_Z   1
loop_
 _symmetry_equiv_pos_site_id
 _symmetry_equiv_pos_as_xyz
  1  'x, y, z'
loop_
 _atom_site_type_symbol
 _atom_site_label
 _atom_site_symmetry_multiplicity
 _atom_site_fract_x
 _atom_site_fract_y
 _atom_site_fract_z
 _atom_site_occupancy
  Cs  Cs0  1  0.33333333  0.66666667  0.50000000  1.0
  Ho  Ho1  1  0.66666667  0.33333333  0.00000000  1.0
