# generated using pymatgen
data_Y2AgHg
_symmetry_space_group_name_H-M   'P 1'
_cell_length_a   12.05219760
_cell_length_b   12.59259530
_cell_length_c   11.85185440
_cell_angle_alpha   60.96395780
_cell_angle_beta   61.40971138
_cell_angle_gamma   61.40971138
_symmetry_Int_Tables_number   1
_chemical_formula_structural   Y2AgHg
_chemical_formula_sum   'Y2 Ag1 Hg1'
_cell_volume   1307.91494084
_cell_formula_units_Z   1
loop_
 _symmetry_equiv_pos_site_id
 _symmetry_equiv_pos_as_xyz
  1  'x, y, z'
loop_
 _atom_site_type_symbol
 _atom_site_label
 _atom_site_symmetry_multiplicity
 _atom_site_fract_x
 _atom_site_fract_y
 _atom_site_fract_z
 _atom_site_occupancy
  Y  Y0  1  0.74800300  0.00000000  0.00000000  1.0
  Y  Y1  1  0.25199700  0.00000000  0.00000000  1.0
  Ag  Ag2  1  0.00000000  0.00000000  0.00000000  1.0
  Hg  Hg3  1  0.50000000  0.00000000  1.00000000  1.0
