# generated using pymatgen
data_KO3
_symmetry_space_group_name_H-M   'P 1'
_cell_length_a   4.23139044
_cell_length_b   4.96376722
_cell_length_c   4.77099957
_cell_angle_alpha   75.26032495
_cell_angle_beta   64.50664405
_cell_angle_gamma   64.50664405
_symmetry_Int_Tables_number   1
_chemical_formula_structural   KO3
_chemical_formula_sum   'K1 O3'
_cell_volume   81.34994982
_cell_formula_units_Z   1
loop_
 _symmetry_equiv_pos_site_id
 _symmetry_equiv_pos_as_xyz
  1  'x, y, z'
loop_
 _atom_site_type_symbol
 _atom_site_label
 _atom_site_symmetry_multiplicity
 _atom_site_fract_x
 _atom_site_fract_y
 _atom_site_fract_z
 _atom_site_occupancy
  K  K0  1  0.48949900  0.51050100  0.51050100  1.0
  O  O1  1  0.08368000  0.72131600  0.11132400  1.0
  O  O2  1  0.96754100  0.03245900  0.03245900  1.0
  O  O3  1  0.08368000  0.11132400  0.72131600  1.0
