# generated using pymatgen
data_Hf2BeZn
_symmetry_space_group_name_H-M   'P 1'
_cell_length_a   10.21315200
_cell_length_b   10.65690961
_cell_length_c   11.09188551
_cell_angle_alpha   60.13475966
_cell_angle_beta   60.71443488
_cell_angle_gamma   60.71443488
_symmetry_Int_Tables_number   1
_chemical_formula_structural   Hf2BeZn
_chemical_formula_sum   'Hf2 Be1 Zn1'
_cell_volume   863.64940178
_cell_formula_units_Z   1
loop_
 _symmetry_equiv_pos_site_id
 _symmetry_equiv_pos_as_xyz
  1  'x, y, z'
loop_
 _atom_site_type_symbol
 _atom_site_label
 _atom_site_symmetry_multiplicity
 _atom_site_fract_x
 _atom_site_fract_y
 _atom_site_fract_z
 _atom_site_occupancy
  Hf  Hf0  1  0.76328400  1.00000000  1.00000000  1.0
  Hf  Hf1  1  0.23671600  1.00000000  1.00000000  1.0
  Be  Be2  1  0.00000000  0.00000000  0.00000000  1.0
  Zn  Zn3  1  0.50000000  1.00000000  1.00000000  1.0
