# generated using pymatgen
data_Li2AgGe
_symmetry_space_group_name_H-M   'P 1'
_cell_length_a   10.51238906
_cell_length_b   11.37154809
_cell_length_c   11.37154809
_cell_angle_alpha   60.82636661
_cell_angle_beta   61.28003085
_cell_angle_gamma   61.28003086
_symmetry_Int_Tables_number   1
_chemical_formula_structural   Li2AgGe
_chemical_formula_sum   'Li2 Ag1 Ge1'
_cell_volume   985.60554040
_cell_formula_units_Z   1
loop_
 _symmetry_equiv_pos_site_id
 _symmetry_equiv_pos_as_xyz
  1  'x, y, z'
loop_
 _atom_site_type_symbol
 _atom_site_label
 _atom_site_symmetry_multiplicity
 _atom_site_fract_x
 _atom_site_fract_y
 _atom_site_fract_z
 _atom_site_occupancy
  Li  Li0  1  0.74818300  1.00000000  0.00000000  1.0
  Li  Li1  1  0.25181700  0.00000000  0.00000000  1.0
  Ag  Ag2  1  0.50000000  0.00000000  0.00000000  1.0
  Ge  Ge3  1  0.00000000  0.00000000  0.00000000  1.0
