# generated using pymatgen
data_LaPr3
_symmetry_space_group_name_H-M   'P 1'
_cell_length_a   5.44881742
_cell_length_b   5.50171856
_cell_length_c   6.65861545
_cell_angle_alpha   114.15179169
_cell_angle_beta   114.15179169
_cell_angle_gamma   89.99999999
_symmetry_Int_Tables_number   1
_chemical_formula_structural   LaPr3
_chemical_formula_sum   'La1 Pr3'
_cell_volume   162.80035410
_cell_formula_units_Z   1
loop_
 _symmetry_equiv_pos_site_id
 _symmetry_equiv_pos_as_xyz
  1  'x, y, z'
loop_
 _atom_site_type_symbol
 _atom_site_label
 _atom_site_symmetry_multiplicity
 _atom_site_fract_x
 _atom_site_fract_y
 _atom_site_fract_z
 _atom_site_occupancy
  La  La0  1  0.00000000  0.00000000  0.00000000  1.0
  Pr  Pr1  1  0.75000000  0.25000000  0.50000000  1.0
  Pr  Pr2  1  0.25000000  0.75000000  0.50000000  1.0
  Pr  Pr3  1  0.50000000  0.50000000  0.00000000  1.0
