# generated using pymatgen
data_ZnGaAg2
_symmetry_space_group_name_H-M   'P 1'
_cell_length_a   10.31934372
_cell_length_b   11.16438799
_cell_length_c   10.42009546
_cell_angle_alpha   60.85435213
_cell_angle_beta   61.28470575
_cell_angle_gamma   61.28470575
_symmetry_Int_Tables_number   1
_chemical_formula_structural   ZnGaAg2
_chemical_formula_sum   'Zn1 Ga1 Ag2'
_cell_volume   870.64409802
_cell_formula_units_Z   1
loop_
 _symmetry_equiv_pos_site_id
 _symmetry_equiv_pos_as_xyz
  1  'x, y, z'
loop_
 _atom_site_type_symbol
 _atom_site_label
 _atom_site_symmetry_multiplicity
 _atom_site_fract_x
 _atom_site_fract_y
 _atom_site_fract_z
 _atom_site_occupancy
  Zn  Zn0  1  0.00000000  0.00000000  0.00000000  1.0
  Ga  Ga1  1  0.50000000  0.00000000  0.00000000  1.0
  Ag  Ag2  1  0.74918400  0.00000000  0.00000000  1.0
  Ag  Ag3  1  0.25081600  0.00000000  0.00000000  1.0
