# generated using pymatgen
data_BiSb
_symmetry_space_group_name_H-M   'P 1'
_cell_length_a   4.54429843
_cell_length_b   4.67927759
_cell_length_c   4.77085389
_cell_angle_alpha   61.55882555
_cell_angle_beta   61.55882555
_cell_angle_gamma   60.00000912
_symmetry_Int_Tables_number   1
_chemical_formula_structural   BiSb
_chemical_formula_sum   'Bi1 Sb1'
_cell_volume   73.37825345
_cell_formula_units_Z   1
loop_
 _symmetry_equiv_pos_site_id
 _symmetry_equiv_pos_as_xyz
  1  'x, y, z'
loop_
 _atom_site_type_symbol
 _atom_site_label
 _atom_site_symmetry_multiplicity
 _atom_site_fract_x
 _atom_site_fract_y
 _atom_site_fract_z
 _atom_site_occupancy
  Bi  Bi0  1  0.76769600  0.76769600  0.69691200  1.0
  Sb  Sb1  1  0.23230400  0.23230400  0.30308800  1.0
