# generated using pymatgen
data_ZnHgS2
_symmetry_space_group_name_H-M   'P 1'
_cell_length_a   4.11746169
_cell_length_b   4.07709442
_cell_length_c   6.69451614
_cell_angle_alpha   73.35623049
_cell_angle_beta   73.35623049
_cell_angle_gamma   60.00001404
_symmetry_Int_Tables_number   1
_chemical_formula_structural   ZnHgS2
_chemical_formula_sum   'Zn1 Hg1 S2'
_cell_volume   91.84931281
_cell_formula_units_Z   1
loop_
 _symmetry_equiv_pos_site_id
 _symmetry_equiv_pos_as_xyz
  1  'x, y, z'
loop_
 _atom_site_type_symbol
 _atom_site_label
 _atom_site_symmetry_multiplicity
 _atom_site_fract_x
 _atom_site_fract_y
 _atom_site_fract_z
 _atom_site_occupancy
  Zn  Zn0  1  0.49913400  0.49913400  0.50259800  1.0
  Hg  Hg1  1  0.00286800  0.00286800  0.99139600  1.0
  S  S2  1  0.13131300  0.13131300  0.60606100  1.0
  S  S3  1  0.61668500  0.61668500  0.14994500  1.0
