# generated using pymatgen
data_CePd2
_symmetry_space_group_name_H-M   'P 1'
_cell_length_a   4.11695648
_cell_length_b   3.87943976
_cell_length_c   4.94035432
_cell_angle_alpha   112.61983330
_cell_angle_beta   112.61983328
_cell_angle_gamma   90.00000002
_symmetry_Int_Tables_number   1
_chemical_formula_structural   CePd2
_chemical_formula_sum   'Ce1 Pd2'
_cell_volume   66.21155022
_cell_formula_units_Z   1
loop_
 _symmetry_equiv_pos_site_id
 _symmetry_equiv_pos_as_xyz
  1  'x, y, z'
loop_
 _atom_site_type_symbol
 _atom_site_label
 _atom_site_symmetry_multiplicity
 _atom_site_fract_x
 _atom_site_fract_y
 _atom_site_fract_z
 _atom_site_occupancy
  Ce  Ce0  1  0.00000000  0.00000000  0.00000000  1.0
  Pd  Pd1  1  0.75000000  0.25000000  0.50000000  1.0
  Pd  Pd2  1  0.25000000  0.75000000  0.50000000  1.0
