# generated using pymatgen
data_NaErSe2
_symmetry_space_group_name_H-M   'P 1'
_cell_length_a   4.19556170
_cell_length_b   4.31896058
_cell_length_c   7.69247943
_cell_angle_alpha   73.85599400
_cell_angle_beta   73.85599400
_cell_angle_gamma   60.00000341
_symmetry_Int_Tables_number   1
_chemical_formula_structural   NaErSe2
_chemical_formula_sum   'Na1 Er1 Se2'
_cell_volume   114.32525169
_cell_formula_units_Z   1
loop_
 _symmetry_equiv_pos_site_id
 _symmetry_equiv_pos_as_xyz
  1  'x, y, z'
loop_
 _atom_site_type_symbol
 _atom_site_label
 _atom_site_symmetry_multiplicity
 _atom_site_fract_x
 _atom_site_fract_y
 _atom_site_fract_z
 _atom_site_occupancy
  Na  Na0  1  0.50000000  0.50000000  0.50000000  1.0
  Er  Er1  1  0.00000000  0.00000000  0.00000000  1.0
  Se  Se2  1  0.25752000  0.25752000  0.22744000  1.0
  Se  Se3  1  0.74248000  0.74248000  0.77256000  1.0
