# generated using pymatgen
data_TiV2W
_symmetry_space_group_name_H-M   'P 1'
_cell_length_a   9.22207728
_cell_length_b   9.85699500
_cell_length_c   9.85699500
_cell_angle_alpha   61.46703700
_cell_angle_beta   63.84471628
_cell_angle_gamma   63.84471628
_symmetry_Int_Tables_number   1
_chemical_formula_structural   TiV2W
_chemical_formula_sum   'Ti1 V2 W1'
_cell_volume   675.79610066
_cell_formula_units_Z   1
loop_
 _symmetry_equiv_pos_site_id
 _symmetry_equiv_pos_as_xyz
  1  'x, y, z'
loop_
 _atom_site_type_symbol
 _atom_site_label
 _atom_site_symmetry_multiplicity
 _atom_site_fract_x
 _atom_site_fract_y
 _atom_site_fract_z
 _atom_site_occupancy
  Ti  Ti0  1  0.00000000  0.00000000  0.00000000  1.0
  V  V1  1  0.75826600  0.00000000  0.00000000  1.0
  V  V2  1  0.24173400  0.00000000  1.00000000  1.0
  W  W3  1  0.50000000  0.00000000  0.00000000  1.0
