# generated using pymatgen
data_SmTlTe2
_symmetry_space_group_name_H-M   'P 1'
_cell_length_a   4.57696593
_cell_length_b   4.62228243
_cell_length_c   8.36641825
_cell_angle_alpha   74.76973239
_cell_angle_beta   74.76973239
_cell_angle_gamma   60.00000823
_symmetry_Int_Tables_number   1
_chemical_formula_structural   SmTlTe2
_chemical_formula_sum   'Sm1 Tl1 Te2'
_cell_volume   146.06423842
_cell_formula_units_Z   1
loop_
 _symmetry_equiv_pos_site_id
 _symmetry_equiv_pos_as_xyz
  1  'x, y, z'
loop_
 _atom_site_type_symbol
 _atom_site_label
 _atom_site_symmetry_multiplicity
 _atom_site_fract_x
 _atom_site_fract_y
 _atom_site_fract_z
 _atom_site_occupancy
  Sm  Sm0  1  0.00000000  0.00000000  0.00000000  1.0
  Tl  Tl1  1  0.50000000  0.50000000  0.50000000  1.0
  Te  Te2  1  0.73883600  0.73883600  0.78349200  1.0
  Te  Te3  1  0.26116400  0.26116400  0.21650800  1.0
