# generated using pymatgen
data_ScCuAu2
_symmetry_space_group_name_H-M   'P 1'
_cell_length_a   9.50702620
_cell_length_b   11.47218749
_cell_length_c   11.58249699
_cell_angle_alpha   61.99030486
_cell_angle_beta   63.02476249
_cell_angle_gamma   63.02476249
_symmetry_Int_Tables_number   1
_chemical_formula_structural   ScCuAu2
_chemical_formula_sum   'Sc1 Cu1 Au2'
_cell_volume   946.34772123
_cell_formula_units_Z   1
loop_
 _symmetry_equiv_pos_site_id
 _symmetry_equiv_pos_as_xyz
  1  'x, y, z'
loop_
 _atom_site_type_symbol
 _atom_site_label
 _atom_site_symmetry_multiplicity
 _atom_site_fract_x
 _atom_site_fract_y
 _atom_site_fract_z
 _atom_site_occupancy
  Sc  Sc0  1  0.00000000  0.00000000  0.00000000  1.0
  Cu  Cu1  1  0.50000000  1.00000000  0.00000000  1.0
  Au  Au2  1  0.74701100  1.00000000  0.00000000  1.0
  Au  Au3  1  0.25298900  1.00000000  0.00000000  1.0
