# generated using pymatgen
data_IBr
_symmetry_space_group_name_H-M   'P 1'
_cell_length_a   4.90850176
_cell_length_b   5.10884878
_cell_length_c   9.16901440
_cell_angle_alpha   90.00000000
_cell_angle_beta   90.00000000
_cell_angle_gamma   114.58021542
_symmetry_Int_Tables_number   1
_chemical_formula_structural   IBr
_chemical_formula_sum   'I2 Br2'
_cell_volume   209.09322272
_cell_formula_units_Z   2
loop_
 _symmetry_equiv_pos_site_id
 _symmetry_equiv_pos_as_xyz
  1  'x, y, z'
loop_
 _atom_site_type_symbol
 _atom_site_label
 _atom_site_symmetry_multiplicity
 _atom_site_fract_x
 _atom_site_fract_y
 _atom_site_fract_z
 _atom_site_occupancy
  I  I0  1  0.50000000  0.50000000  0.50000000  1.0
  I  I1  1  0.50000000  0.50000000  0.00000000  1.0
  Br  Br2  1  0.79903900  0.79903900  0.75000000  1.0
  Br  Br3  1  0.20096100  0.20096100  0.25000000  1.0
