# generated using pymatgen
data_LiCd2In
_symmetry_space_group_name_H-M   'P 1'
_cell_length_a   12.32310030
_cell_length_b   12.41488073
_cell_length_c   12.29664377
_cell_angle_alpha   60.12213176
_cell_angle_beta   60.24425120
_cell_angle_gamma   60.24425121
_symmetry_Int_Tables_number   1
_chemical_formula_structural   LiCd2In
_chemical_formula_sum   'Li1 Cd2 In1'
_cell_volume   1336.37963275
_cell_formula_units_Z   1
loop_
 _symmetry_equiv_pos_site_id
 _symmetry_equiv_pos_as_xyz
  1  'x, y, z'
loop_
 _atom_site_type_symbol
 _atom_site_label
 _atom_site_symmetry_multiplicity
 _atom_site_fract_x
 _atom_site_fract_y
 _atom_site_fract_z
 _atom_site_occupancy
  Li  Li0  1  0.00000000  0.00000000  0.00000000  1.0
  Cd  Cd1  1  0.76212600  1.00000000  0.00000000  1.0
  Cd  Cd2  1  0.23787400  0.00000000  0.00000000  1.0
  In  In3  1  0.50000000  1.00000000  0.00000000  1.0
