# generated using pymatgen
data_CaAu
_symmetry_space_group_name_H-M   'P 1'
_cell_length_a   3.94103080
_cell_length_b   4.43370320
_cell_length_c   5.59975971
_cell_angle_alpha   90.00000000
_cell_angle_beta   109.94516299
_cell_angle_gamma   90.00000000
_symmetry_Int_Tables_number   1
_chemical_formula_structural   CaAu
_chemical_formula_sum   'Ca2 Au2'
_cell_volume   91.97773610
_cell_formula_units_Z   2
loop_
 _symmetry_equiv_pos_site_id
 _symmetry_equiv_pos_as_xyz
  1  'x, y, z'
loop_
 _atom_site_type_symbol
 _atom_site_label
 _atom_site_symmetry_multiplicity
 _atom_site_fract_x
 _atom_site_fract_y
 _atom_site_fract_z
 _atom_site_occupancy
  Ca  Ca0  1  0.13937800  0.75000000  0.27875600  1.0
  Ca  Ca1  1  0.86062200  0.25000000  0.72124400  1.0
  Au  Au2  1  0.41905900  0.75000000  0.83811800  1.0
  Au  Au3  1  0.58094100  0.25000000  0.16188200  1.0
