# generated using pymatgen
data_MoN
_symmetry_space_group_name_H-M   'P 1'
_cell_length_a   3.10054536
_cell_length_b   5.46586618
_cell_length_c   5.51945310
_cell_angle_alpha   72.58857826
_cell_angle_beta   73.00892206
_cell_angle_gamma   73.00892207
_symmetry_Int_Tables_number   1
_chemical_formula_structural   MoN
_chemical_formula_sum   'Mo2 N2'
_cell_volume   83.18026971
_cell_formula_units_Z   2
loop_
 _symmetry_equiv_pos_site_id
 _symmetry_equiv_pos_as_xyz
  1  'x, y, z'
loop_
 _atom_site_type_symbol
 _atom_site_label
 _atom_site_symmetry_multiplicity
 _atom_site_fract_x
 _atom_site_fract_y
 _atom_site_fract_z
 _atom_site_occupancy
  Mo  Mo0  1  0.88315600  0.86684400  0.36684400  1.0
  Mo  Mo1  1  0.11684400  0.13315600  0.63315600  1.0
  N  N2  1  0.00000000  0.50000000  0.50000000  1.0
  N  N3  1  0.00000000  0.00000000  0.00000000  1.0
