# generated using pymatgen
data_LiRh3
_symmetry_space_group_name_H-M   'P 1'
_cell_length_a   3.62623872
_cell_length_b   3.70178536
_cell_length_c   4.72369855
_cell_angle_alpha   113.81758404
_cell_angle_beta   113.81758405
_cell_angle_gamma   90.00000000
_symmetry_Int_Tables_number   1
_chemical_formula_structural   LiRh3
_chemical_formula_sum   'Li1 Rh3'
_cell_volume   52.05124151
_cell_formula_units_Z   1
loop_
 _symmetry_equiv_pos_site_id
 _symmetry_equiv_pos_as_xyz
  1  'x, y, z'
loop_
 _atom_site_type_symbol
 _atom_site_label
 _atom_site_symmetry_multiplicity
 _atom_site_fract_x
 _atom_site_fract_y
 _atom_site_fract_z
 _atom_site_occupancy
  Li  Li0  1  0.00000000  0.00000000  0.00000000  1.0
  Rh  Rh1  1  0.75000000  0.25000000  0.50000000  1.0
  Rh  Rh2  1  0.25000000  0.75000000  0.50000000  1.0
  Rh  Rh3  1  0.50000000  0.50000000  0.00000000  1.0
