# generated using pymatgen
data_KBePt
_symmetry_space_group_name_H-M   'P 1'
_cell_length_a   4.51615731
_cell_length_b   4.42399084
_cell_length_c   4.37790760
_cell_angle_alpha   60.00000000
_cell_angle_beta   60.00000000
_cell_angle_gamma   60.00000000
_symmetry_Int_Tables_number   1
_chemical_formula_structural   KBePt
_chemical_formula_sum   'K1 Be1 Pt1'
_cell_volume   61.84931212
_cell_formula_units_Z   1
loop_
 _symmetry_equiv_pos_site_id
 _symmetry_equiv_pos_as_xyz
  1  'x, y, z'
loop_
 _atom_site_type_symbol
 _atom_site_label
 _atom_site_symmetry_multiplicity
 _atom_site_fract_x
 _atom_site_fract_y
 _atom_site_fract_z
 _atom_site_occupancy
  K  K0  1  0.50000000  0.50000000  0.50000000  1.0
  Be  Be1  1  0.00000000  0.00000000  0.00000000  1.0
  Pt  Pt2  1  0.25000000  0.25000000  0.25000000  1.0
