# generated using pymatgen
data_AlSiTc2
_symmetry_space_group_name_H-M   'P 1'
_cell_length_a   10.05986176
_cell_length_b   10.05404682
_cell_length_c   10.46441608
_cell_angle_alpha   61.23453802
_cell_angle_beta   61.87307632
_cell_angle_gamma   61.87307632
_symmetry_Int_Tables_number   1
_chemical_formula_structural   AlSiTc2
_chemical_formula_sum   'Al1 Si1 Tc2'
_cell_volume   776.19736568
_cell_formula_units_Z   1
loop_
 _symmetry_equiv_pos_site_id
 _symmetry_equiv_pos_as_xyz
  1  'x, y, z'
loop_
 _atom_site_type_symbol
 _atom_site_label
 _atom_site_symmetry_multiplicity
 _atom_site_fract_x
 _atom_site_fract_y
 _atom_site_fract_z
 _atom_site_occupancy
  Al  Al0  1  0.00000000  0.00000000  0.00000000  1.0
  Si  Si1  1  0.50000000  0.00000000  1.00000000  1.0
  Tc  Tc2  1  0.73601800  0.00000000  0.00000000  1.0
  Tc  Tc3  1  0.26398200  0.00000000  1.00000000  1.0
