# generated using pymatgen
data_NdTlS2
_symmetry_space_group_name_H-M   'P 1'
_cell_length_a   3.97782225
_cell_length_b   4.14530950
_cell_length_c   8.28014208
_cell_angle_alpha   74.60410211
_cell_angle_beta   74.60410211
_cell_angle_gamma   60.00001086
_symmetry_Int_Tables_number   1
_chemical_formula_structural   NdTlS2
_chemical_formula_sum   'Nd1 Tl1 S2'
_cell_volume   112.54862794
_cell_formula_units_Z   1
loop_
 _symmetry_equiv_pos_site_id
 _symmetry_equiv_pos_as_xyz
  1  'x, y, z'
loop_
 _atom_site_type_symbol
 _atom_site_label
 _atom_site_symmetry_multiplicity
 _atom_site_fract_x
 _atom_site_fract_y
 _atom_site_fract_z
 _atom_site_occupancy
  Nd  Nd0  1  0.00000000  0.00000000  0.00000000  1.0
  Tl  Tl1  1  0.50000000  0.50000000  0.50000000  1.0
  S  S2  1  0.73470400  0.73470400  0.79588800  1.0
  S  S3  1  0.26529600  0.26529600  0.20411200  1.0
