# generated using pymatgen
data_InI
_symmetry_space_group_name_H-M   'P 1'
_cell_length_a   5.05315200
_cell_length_b   5.05141638
_cell_length_c   7.14689706
_cell_angle_alpha   90.00000000
_cell_angle_beta   110.49474404
_cell_angle_gamma   90.00000000
_symmetry_Int_Tables_number   1
_chemical_formula_structural   InI
_chemical_formula_sum   'In2 I2'
_cell_volume   170.88170794
_cell_formula_units_Z   2
loop_
 _symmetry_equiv_pos_site_id
 _symmetry_equiv_pos_as_xyz
  1  'x, y, z'
loop_
 _atom_site_type_symbol
 _atom_site_label
 _atom_site_symmetry_multiplicity
 _atom_site_fract_x
 _atom_site_fract_y
 _atom_site_fract_z
 _atom_site_occupancy
  In  In0  1  0.39541000  0.75000000  0.79082000  1.0
  In  In1  1  0.60459000  0.25000000  0.20918000  1.0
  I  I2  1  0.14279100  0.75000000  0.28558200  1.0
  I  I3  1  0.85720900  0.25000000  0.71441800  1.0
