# generated using pymatgen
data_Ta2FeTc
_symmetry_space_group_name_H-M   'P 1'
_cell_length_a   8.84615570
_cell_length_b   10.78290012
_cell_length_c   10.78290012
_cell_angle_alpha   63.85654074
_cell_angle_beta   65.52758856
_cell_angle_gamma   65.52758856
_symmetry_Int_Tables_number   1
_chemical_formula_structural   Ta2FeTc
_chemical_formula_sum   'Ta2 Fe1 Tc1'
_cell_volume   805.86583590
_cell_formula_units_Z   1
loop_
 _symmetry_equiv_pos_site_id
 _symmetry_equiv_pos_as_xyz
  1  'x, y, z'
loop_
 _atom_site_type_symbol
 _atom_site_label
 _atom_site_symmetry_multiplicity
 _atom_site_fract_x
 _atom_site_fract_y
 _atom_site_fract_z
 _atom_site_occupancy
  Ta  Ta0  1  0.75363300  1.00000000  1.00000000  1.0
  Ta  Ta1  1  0.24636700  0.00000000  0.00000000  1.0
  Fe  Fe2  1  0.00000000  0.00000000  0.00000000  1.0
  Tc  Tc3  1  0.50000000  0.00000000  0.00000000  1.0
