# generated using pymatgen
data_FeSb
_symmetry_space_group_name_H-M   'P 1'
_cell_length_a   3.97465794
_cell_length_b   4.05495495
_cell_length_c   4.86916526
_cell_angle_alpha   90.00000000
_cell_angle_beta   90.00000000
_cell_angle_gamma   119.99999277
_symmetry_Int_Tables_number   1
_chemical_formula_structural   FeSb
_chemical_formula_sum   'Fe2 Sb2'
_cell_volume   67.96275430
_cell_formula_units_Z   2
loop_
 _symmetry_equiv_pos_site_id
 _symmetry_equiv_pos_as_xyz
  1  'x, y, z'
loop_
 _atom_site_type_symbol
 _atom_site_label
 _atom_site_symmetry_multiplicity
 _atom_site_fract_x
 _atom_site_fract_y
 _atom_site_fract_z
 _atom_site_occupancy
  Fe  Fe0  1  0.00000000  0.00000000  0.00000000  1.0
  Fe  Fe1  1  0.00000000  0.00000000  0.50000000  1.0
  Sb  Sb2  1  0.66666667  0.33333333  0.75000000  1.0
  Sb  Sb3  1  0.33333333  0.66666667  0.25000000  1.0
