# generated using pymatgen
data_VCrC2
_symmetry_space_group_name_H-M   'P 1'
_cell_length_a   2.77520096
_cell_length_b   2.89205153
_cell_length_c   5.08084920
_cell_angle_alpha   73.12091773
_cell_angle_beta   73.12091773
_cell_angle_gamma   59.99999618
_symmetry_Int_Tables_number   1
_chemical_formula_structural   VCrC2
_chemical_formula_sum   'V1 Cr1 C2'
_cell_volume   33.27166017
_cell_formula_units_Z   1
loop_
 _symmetry_equiv_pos_site_id
 _symmetry_equiv_pos_as_xyz
  1  'x, y, z'
loop_
 _atom_site_type_symbol
 _atom_site_label
 _atom_site_symmetry_multiplicity
 _atom_site_fract_x
 _atom_site_fract_y
 _atom_site_fract_z
 _atom_site_occupancy
  V  V0  1  0.00000000  0.00000000  0.00000000  1.0
  Cr  Cr1  1  0.50000000  0.50000000  0.50000000  1.0
  C  C2  1  0.24875900  0.24875900  0.25372300  1.0
  C  C3  1  0.75124100  0.75124100  0.74627700  1.0
