# generated using pymatgen
data_Si2O
_symmetry_space_group_name_H-M   'P 1'
_cell_length_a   2.93885160
_cell_length_b   3.91822591
_cell_length_c   4.27858526
_cell_angle_alpha   111.99623552
_cell_angle_beta   90.00000000
_cell_angle_gamma   113.74435688
_symmetry_Int_Tables_number   1
_chemical_formula_structural   Si2O
_chemical_formula_sum   'Si2 O1'
_cell_volume   41.14957381
_cell_formula_units_Z   1
loop_
 _symmetry_equiv_pos_site_id
 _symmetry_equiv_pos_as_xyz
  1  'x, y, z'
loop_
 _atom_site_type_symbol
 _atom_site_label
 _atom_site_symmetry_multiplicity
 _atom_site_fract_x
 _atom_site_fract_y
 _atom_site_fract_z
 _atom_site_occupancy
  Si  Si0  1  0.34764300  0.69528600  0.93774900  1.0
  Si  Si1  1  0.71112900  0.42225800  0.20624100  1.0
  O  O2  1  0.27452800  0.54905600  0.51601000  1.0
