# generated using pymatgen
data_LiInCu2
_symmetry_space_group_name_H-M   'P 1'
_cell_length_a   10.45339656
_cell_length_b   10.50207403
_cell_length_c   10.81401682
_cell_angle_alpha   60.32124929
_cell_angle_beta   60.47500228
_cell_angle_gamma   60.47500228
_symmetry_Int_Tables_number   1
_chemical_formula_structural   LiInCu2
_chemical_formula_sum   'Li1 In1 Cu2'
_cell_volume   847.50811993
_cell_formula_units_Z   1
loop_
 _symmetry_equiv_pos_site_id
 _symmetry_equiv_pos_as_xyz
  1  'x, y, z'
loop_
 _atom_site_type_symbol
 _atom_site_label
 _atom_site_symmetry_multiplicity
 _atom_site_fract_x
 _atom_site_fract_y
 _atom_site_fract_z
 _atom_site_occupancy
  Li  Li0  1  0.00000000  0.00000000  0.00000000  1.0
  In  In1  1  0.50000000  0.00000000  0.00000000  1.0
  Cu  Cu2  1  0.75237500  0.00000000  0.00000000  1.0
  Cu  Cu3  1  0.24762500  0.00000000  0.00000000  1.0
