# generated using pymatgen
data_Y2NiPt
_symmetry_space_group_name_H-M   'P 1'
_cell_length_a   10.22142204
_cell_length_b   15.14124564
_cell_length_c   14.27603160
_cell_angle_alpha   66.03710599
_cell_angle_beta   69.66776707
_cell_angle_gamma   69.66776707
_symmetry_Int_Tables_number   1
_chemical_formula_structural   Y2NiPt
_chemical_formula_sum   'Y2 Ni1 Pt1'
_cell_volume   1837.48850449
_cell_formula_units_Z   1
loop_
 _symmetry_equiv_pos_site_id
 _symmetry_equiv_pos_as_xyz
  1  'x, y, z'
loop_
 _atom_site_type_symbol
 _atom_site_label
 _atom_site_symmetry_multiplicity
 _atom_site_fract_x
 _atom_site_fract_y
 _atom_site_fract_z
 _atom_site_occupancy
  Y  Y0  1  0.75825400  0.00000000  1.00000000  1.0
  Y  Y1  1  0.24174600  0.00000000  1.00000000  1.0
  Ni  Ni2  1  0.00000000  0.00000000  0.00000000  1.0
  Pt  Pt3  1  0.50000000  0.00000000  1.00000000  1.0
