# generated using pymatgen
data_He
_symmetry_space_group_name_H-M   'P 1'
_cell_length_a   2.54537102
_cell_length_b   2.85120570
_cell_length_c   2.76974283
_cell_angle_alpha   60.00000183
_cell_angle_beta   90.00000000
_cell_angle_gamma   90.00000000
_symmetry_Int_Tables_number   1
_chemical_formula_structural   He
_chemical_formula_sum   He1
_cell_volume   17.40803426
_cell_formula_units_Z   1
loop_
 _symmetry_equiv_pos_site_id
 _symmetry_equiv_pos_as_xyz
  1  'x, y, z'
loop_
 _atom_site_type_symbol
 _atom_site_label
 _atom_site_symmetry_multiplicity
 _atom_site_fract_x
 _atom_site_fract_y
 _atom_site_fract_z
 _atom_site_occupancy
  He  He0  1  0.00000000  0.00000000  0.00000000  1.0
