# generated using pymatgen
data_Li2ZnHg
_symmetry_space_group_name_H-M   'P 1'
_cell_length_a   11.64769410
_cell_length_b   10.79391622
_cell_length_c   11.57285863
_cell_angle_alpha   60.62487437
_cell_angle_beta   60.10311989
_cell_angle_gamma   60.10311989
_symmetry_Int_Tables_number   1
_chemical_formula_structural   Li2ZnHg
_chemical_formula_sum   'Li2 Zn1 Hg1'
_cell_volume   1035.22634526
_cell_formula_units_Z   1
loop_
 _symmetry_equiv_pos_site_id
 _symmetry_equiv_pos_as_xyz
  1  'x, y, z'
loop_
 _atom_site_type_symbol
 _atom_site_label
 _atom_site_symmetry_multiplicity
 _atom_site_fract_x
 _atom_site_fract_y
 _atom_site_fract_z
 _atom_site_occupancy
  Li  Li0  1  0.00000000  0.24874300  0.75125700  1.0
  Li  Li1  1  0.00000000  0.75125700  0.24874300  1.0
  Zn  Zn2  1  0.00000000  0.00000000  0.00000000  1.0
  Hg  Hg3  1  0.00000000  0.50000000  0.50000000  1.0
