# generated using pymatgen
data_CrH
_symmetry_space_group_name_H-M   'P 1'
_cell_length_a   2.70284980
_cell_length_b   2.81317044
_cell_length_c   4.72615080
_cell_angle_alpha   90.00000000
_cell_angle_beta   90.00000000
_cell_angle_gamma   119.99999713
_symmetry_Int_Tables_number   1
_chemical_formula_structural   CrH
_chemical_formula_sum   'Cr2 H2'
_cell_volume   31.12118874
_cell_formula_units_Z   2
loop_
 _symmetry_equiv_pos_site_id
 _symmetry_equiv_pos_as_xyz
  1  'x, y, z'
loop_
 _atom_site_type_symbol
 _atom_site_label
 _atom_site_symmetry_multiplicity
 _atom_site_fract_x
 _atom_site_fract_y
 _atom_site_fract_z
 _atom_site_occupancy
  Cr  Cr0  1  0.33333333  0.66666667  0.49913400  1.0
  Cr  Cr1  1  0.66666667  0.33333333  0.99913400  1.0
  H  H2  1  0.33333333  0.66666667  0.12586600  1.0
  H  H3  1  0.66666667  0.33333333  0.62586600  1.0
