# generated using pymatgen
data_GeI2
_symmetry_space_group_name_H-M   'P 1'
_cell_length_a   4.51986205
_cell_length_b   4.51986213
_cell_length_c   8.09519208
_cell_angle_alpha   74.73896550
_cell_angle_beta   74.73896287
_cell_angle_gamma   60.00000152
_symmetry_Int_Tables_number   1
_chemical_formula_structural   GeI2
_chemical_formula_sum   'Ge1 I2'
_cell_volume   136.44598586
_cell_formula_units_Z   1
loop_
 _symmetry_equiv_pos_site_id
 _symmetry_equiv_pos_as_xyz
  1  'x, y, z'
loop_
 _atom_site_type_symbol
 _atom_site_label
 _atom_site_symmetry_multiplicity
 _atom_site_fract_x
 _atom_site_fract_y
 _atom_site_fract_z
 _atom_site_occupancy
  Ge  Ge0  1  0.00000002  0.00000002  0.99999994  1.0
  I  I1  1  0.25871071  0.25871025  0.22386831  1.0
  I  I2  1  0.74128927  0.74128973  0.77613175  1.0
