# generated using pymatgen
data_NaAuO2
_symmetry_space_group_name_H-M   'P 1'
_cell_length_a   2.94514560
_cell_length_b   3.81156803
_cell_length_c   5.72974988
_cell_angle_alpha   80.38614105
_cell_angle_beta   74.31250138
_cell_angle_gamma   65.76441275
_symmetry_Int_Tables_number   1
_chemical_formula_structural   NaAuO2
_chemical_formula_sum   'Na1 Au1 O2'
_cell_volume   56.35141730
_cell_formula_units_Z   1
loop_
 _symmetry_equiv_pos_site_id
 _symmetry_equiv_pos_as_xyz
  1  'x, y, z'
loop_
 _atom_site_type_symbol
 _atom_site_label
 _atom_site_symmetry_multiplicity
 _atom_site_fract_x
 _atom_site_fract_y
 _atom_site_fract_z
 _atom_site_occupancy
  Na  Na0  1  0.50000000  0.50000000  0.50000000  1.0
  Au  Au1  1  0.50000000  0.00000000  0.00000000  1.0
  O  O2  1  0.90846000  0.93542000  0.24766000  1.0
  O  O3  1  0.09154000  0.06458000  0.75234000  1.0
