# generated using pymatgen
data_Ca2SnAu
_symmetry_space_group_name_H-M   'P 1'
_cell_length_a   12.13364926
_cell_length_b   12.96163768
_cell_length_c   12.96163768
_cell_angle_alpha   60.98833129
_cell_angle_beta   61.50066354
_cell_angle_gamma   61.50066354
_symmetry_Int_Tables_number   1
_chemical_formula_structural   Ca2SnAu
_chemical_formula_sum   'Ca2 Sn1 Au1'
_cell_volume   1484.44457714
_cell_formula_units_Z   1
loop_
 _symmetry_equiv_pos_site_id
 _symmetry_equiv_pos_as_xyz
  1  'x, y, z'
loop_
 _atom_site_type_symbol
 _atom_site_label
 _atom_site_symmetry_multiplicity
 _atom_site_fract_x
 _atom_site_fract_y
 _atom_site_fract_z
 _atom_site_occupancy
  Ca  Ca0  1  0.74582100  1.00000000  0.00000000  1.0
  Ca  Ca1  1  0.25417900  0.00000000  1.00000000  1.0
  Sn  Sn2  1  0.00000000  0.00000000  0.00000000  1.0
  Au  Au3  1  0.50000000  1.00000000  0.00000000  1.0
