# generated using pymatgen
data_ZrTiCN
_symmetry_space_group_name_H-M   'P 1'
_cell_length_a   3.11830465
_cell_length_b   3.27740183
_cell_length_c   5.77100943
_cell_angle_alpha   73.17391352
_cell_angle_beta   73.17391352
_cell_angle_gamma   60.00000990
_symmetry_Int_Tables_number   1
_chemical_formula_structural   ZrTiCN
_chemical_formula_sum   'Zr1 Ti1 C1 N1'
_cell_volume   48.13989523
_cell_formula_units_Z   1
loop_
 _symmetry_equiv_pos_site_id
 _symmetry_equiv_pos_as_xyz
  1  'x, y, z'
loop_
 _atom_site_type_symbol
 _atom_site_label
 _atom_site_symmetry_multiplicity
 _atom_site_fract_x
 _atom_site_fract_y
 _atom_site_fract_z
 _atom_site_occupancy
  Zr  Zr0  1  0.25040600  0.25040600  0.24878200  1.0
  Ti  Ti1  1  0.74869900  0.74869900  0.75390300  1.0
  C  C2  1  0.00587800  0.00587800  0.98236600  1.0
  N  N3  1  0.49501700  0.49501700  0.51494900  1.0
