data_image0
_chemical_formula_structural       Ti4Mn4IrCoIr6
_chemical_formula_sum              "Ti4 Mn4 Ir7 Co1"
_cell_length_a       18.195519992310714
_cell_length_b       20.36164482
_cell_length_c       10.180822409655075
_cell_angle_alpha    62.32303640117383
_cell_angle_beta     63.460883116458604
_cell_angle_gamma    63.460883114999994

_space_group_name_H-M_alt    "P 1"
_space_group_IT_number       1

loop_
  _space_group_symop_operation_xyz
  'x, y, z'

loop_
  _atom_site_type_symbol
  _atom_site_label
  _atom_site_symmetry_multiplicity
  _atom_site_fract_x
  _atom_site_fract_y
  _atom_site_fract_z
  _atom_site_occupancy
  Ti  Ti1       1.0  0.0  0.0  0.0  1.0000
  Ti  Ti2       1.0  1.7170462694611558e-16  0.49999999999999983  0.0  1.0000
  Ti  Ti3       1.0  0.5  3.2180803471166547e-17  4.925602252753479e-17  1.0000
  Ti  Ti4       1.0  0.5000000000000003  0.49999999999999983  0.9999999999999998  1.0000
  Mn  Mn1       1.0  0.25  1.6090401735583273e-17  2.4628011263767394e-17  1.0000
  Mn  Mn2       1.0  0.2500000000000002  0.5  0.9999999999999998  1.0000
  Mn  Mn3       1.0  0.75  0.0  0.9999999999999998  1.0000
  Mn  Mn4       1.0  0.7500000000000002  0.4999999999999999  9.851204505506958e-17  1.0000
  Ir  Ir1       1.0  0.3851420000000001  0.49999999999999983  0.9999999999999998  1.0000
  Co  Co1       1.0  0.3851420000000001  0.9999999999999997  0.9999999999999999  1.0000
  Ir  Ir2       1.0  0.8851420000000002  0.4999999999999999  9.851204505506958e-17  1.0000
  Ir  Ir3       1.0  0.8851420000000002  0.0  0.9999999999999998  1.0000
  Ir  Ir4       1.0  0.11485800000000002  7.778038647618464e-18  3.6942016895651093e-17  1.0000
  Ir  Ir5       1.0  0.11485800000000004  0.5  0.0  1.0000
  Ir  Ir6       1.0  0.6148580000000001  3.2180803471166547e-17  4.925602252753479e-17  1.0000
  Ir  Ir7       1.0  0.6148580000000001  0.5  9.851204505506958e-17  1.0000
