data_image0
_chemical_formula_structural       Tl4C3Si
_chemical_formula_sum              "Tl4 C3 Si1"
_cell_length_a       6.467548
_cell_length_b       6.819188
_cell_length_c       3.409594
_cell_angle_alpha    90.0
_cell_angle_beta     90.0
_cell_angle_gamma    90.0

_space_group_name_H-M_alt    "P 1"
_space_group_IT_number       1

loop_
  _space_group_symop_operation_xyz
  'x, y, z'

loop_
  _atom_site_type_symbol
  _atom_site_label
  _atom_site_symmetry_multiplicity
  _atom_site_fract_x
  _atom_site_fract_y
  _atom_site_fract_z
  _atom_site_occupancy
  Tl  Tl1       1.0  0.0  0.0  0.0  1.0000
  Tl  Tl2       1.0  0.0  0.5  0.0  1.0000
  Tl  Tl3       1.0  0.5  0.0  0.0  1.0000
  Tl  Tl4       1.0  0.49999999999999994  0.5  0.0  1.0000
  C   C1        1.0  0.0  0.25  0.5  1.0000
  C   C2        1.0  0.0  0.75  0.5  1.0000
  C   C3        1.0  0.49999999999999994  0.25  0.5  1.0000
  Si  Si1       1.0  0.49999999999999994  0.75  0.5  1.0000
