data_image0
_chemical_formula_structural       Li4Mg4AuAgAu6
_chemical_formula_sum              "Li4 Mg4 Au7 Ag1"
_cell_length_a       9.14338282
_cell_length_b       9.14338282
_cell_length_c       4.57169141
_cell_angle_alpha    60.00000000000001
_cell_angle_beta     60.00000000000001
_cell_angle_gamma    60.00000000000001

_space_group_name_H-M_alt    "P 1"
_space_group_IT_number       1

loop_
  _space_group_symop_operation_xyz
  'x, y, z'

loop_
  _atom_site_type_symbol
  _atom_site_label
  _atom_site_symmetry_multiplicity
  _atom_site_fract_x
  _atom_site_fract_y
  _atom_site_fract_z
  _atom_site_occupancy
  Li  Li1       1.0  0.25000000000000006  0.25000000000000006  0.49999999999999983  1.0000
  Li  Li2       1.0  0.25000000000000017  0.75  0.4999999999999999  1.0000
  Li  Li3       1.0  0.7500000000000001  0.25000000000000006  0.5  1.0000
  Li  Li4       1.0  0.75  0.75  0.5000000000000002  1.0000
  Mg  Mg1       1.0  0.0  0.0  0.0  1.0000
  Mg  Mg2       1.0  0.0  0.5  0.0  1.0000
  Mg  Mg3       1.0  0.5  0.0  0.0  1.0000
  Mg  Mg4       1.0  0.5000000000000001  0.4999999999999999  0.0  1.0000
  Au  Au1       1.0  0.12499999999999999  0.125  0.24999999999999978  1.0000
  Ag  Ag1       1.0  0.12500000000000003  0.625  0.24999999999999975  1.0000
  Au  Au2       1.0  0.6249999999999999  0.125  0.24999999999999986  1.0000
  Au  Au3       1.0  0.6250000000000001  0.625  0.24999999999999986  1.0000
  Au  Au4       1.0  0.375  0.375  0.7499999999999999  1.0000
  Au  Au5       1.0  0.37500000000000033  0.8749999999999998  0.7499999999999998  1.0000
  Au  Au6       1.0  0.8750000000000003  0.37499999999999983  0.7499999999999998  1.0000
  Au  Au7       1.0  0.8749999999999999  0.875  0.7499999999999998  1.0000
