data_image0
_chemical_formula_structural       Er4Tl2AlTlRh8
_chemical_formula_sum              "Er4 Tl3 Al1 Rh8"
_cell_length_a       9.438051199999999
_cell_length_b       9.438051199999999
_cell_length_c       4.719025599999999
_cell_angle_alpha    60.00000000000001
_cell_angle_beta     60.00000000000001
_cell_angle_gamma    60.00000000000001

_space_group_name_H-M_alt    "P 1"
_space_group_IT_number       1

loop_
  _space_group_symop_operation_xyz
  'x, y, z'

loop_
  _atom_site_type_symbol
  _atom_site_label
  _atom_site_symmetry_multiplicity
  _atom_site_fract_x
  _atom_site_fract_y
  _atom_site_fract_z
  _atom_site_occupancy
  Er  Er1       1.0  0.24999999999999997  0.24999999999999997  0.4999999999999998  1.0000
  Er  Er2       1.0  0.2499999999999999  0.75  0.4999999999999999  1.0000
  Er  Er3       1.0  0.7499999999999999  0.24999999999999997  0.5  1.0000
  Er  Er4       1.0  0.7499999999999998  0.7500000000000001  0.5000000000000002  1.0000
  Tl  Tl1       1.0  0.0  0.0  0.0  1.0000
  Tl  Tl2       1.0  0.0  0.5  0.0  1.0000
  Al  Al1       1.0  0.5  0.0  0.0  1.0000
  Tl  Tl3       1.0  0.5  0.49999999999999994  0.0  1.0000
  Rh  Rh1       1.0  0.3749999999999999  0.37500000000000006  0.75  1.0000
  Rh  Rh2       1.0  0.37499999999999994  0.875  0.7499999999999999  1.0000
  Rh  Rh3       1.0  0.875  0.37499999999999994  0.7499999999999999  1.0000
  Rh  Rh4       1.0  0.875  0.8749999999999998  0.7499999999999999  1.0000
  Rh  Rh5       1.0  0.12499999999999994  0.12499999999999996  0.2499999999999999  1.0000
  Rh  Rh6       1.0  0.12500000000000006  0.6249999999999999  0.24999999999999994  1.0000
  Rh  Rh7       1.0  0.6250000000000001  0.1249999999999999  0.24999999999999994  1.0000
  Rh  Rh8       1.0  0.6249999999999999  0.6249999999999999  0.25  1.0000
