data_image0
_chemical_formula_structural       Li4Cd8NiPt3
_chemical_formula_sum              "Li4 Cd8 Ni1 Pt3"
_cell_length_a       9.29487622
_cell_length_b       9.294876219999999
_cell_length_c       4.6474381099999995
_cell_angle_alpha    59.99999999999999
_cell_angle_beta     60.00000000000001
_cell_angle_gamma    60.00000000000001

_space_group_name_H-M_alt    "P 1"
_space_group_IT_number       1

loop_
  _space_group_symop_operation_xyz
  'x, y, z'

loop_
  _atom_site_type_symbol
  _atom_site_label
  _atom_site_symmetry_multiplicity
  _atom_site_fract_x
  _atom_site_fract_y
  _atom_site_fract_z
  _atom_site_occupancy
  Li  Li1       1.0  0.25000000000000006  0.24999999999999986  0.4999999999999998  1.0000
  Li  Li2       1.0  0.2499999999999999  0.75  0.49999999999999956  1.0000
  Li  Li3       1.0  0.7499999999999999  0.24999999999999994  0.49999999999999956  1.0000
  Li  Li4       1.0  0.7500000000000001  0.7499999999999999  0.4999999999999998  1.0000
  Cd  Cd1       1.0  0.12500000000000003  0.12500000000000008  0.24999999999999978  1.0000
  Cd  Cd2       1.0  0.12500000000000006  0.625  0.24999999999999994  1.0000
  Cd  Cd3       1.0  0.6250000000000001  0.12500000000000003  0.24999999999999983  1.0000
  Cd  Cd4       1.0  0.6250000000000001  0.625  0.24999999999999967  1.0000
  Cd  Cd5       1.0  0.37500000000000006  0.37499999999999983  0.7499999999999998  1.0000
  Cd  Cd6       1.0  0.37500000000000017  0.8749999999999999  0.7499999999999998  1.0000
  Cd  Cd7       1.0  0.8750000000000002  0.37499999999999994  0.7499999999999998  1.0000
  Cd  Cd8       1.0  0.8750000000000002  0.8749999999999999  0.75  1.0000
  Ni  Ni1       1.0  0.0  0.0  0.0  1.0000
  Pt  Pt1       1.0  0.0  0.5  0.0  1.0000
  Pt  Pt2       1.0  0.5  0.0  0.0  1.0000
  Pt  Pt3       1.0  0.5  0.5  0.0  1.0000
