data_image0
_chemical_formula_structural       Er4CdHgCd2Pd8
_chemical_formula_sum              "Er4 Cd3 Hg1 Pd8"
_cell_length_a       9.554398539999998
_cell_length_b       9.554398539999998
_cell_length_c       4.777199269999999
_cell_angle_alpha    60.00000000000001
_cell_angle_beta     60.00000000000001
_cell_angle_gamma    60.00000000000001

_space_group_name_H-M_alt    "P 1"
_space_group_IT_number       1

loop_
  _space_group_symop_operation_xyz
  'x, y, z'

loop_
  _atom_site_type_symbol
  _atom_site_label
  _atom_site_symmetry_multiplicity
  _atom_site_fract_x
  _atom_site_fract_y
  _atom_site_fract_z
  _atom_site_occupancy
  Er  Er1       1.0  0.0  0.0  0.0  1.0000
  Er  Er2       1.0  0.0  0.5  0.0  1.0000
  Er  Er3       1.0  0.5  0.0  0.0  1.0000
  Er  Er4       1.0  0.5  0.5  0.0  1.0000
  Cd  Cd1       1.0  0.25000000000000017  0.24999999999999986  0.4999999999999999  1.0000
  Hg  Hg1       1.0  0.24999999999999997  0.7500000000000001  0.4999999999999999  1.0000
  Cd  Cd2       1.0  0.7500000000000001  0.24999999999999997  0.4999999999999999  1.0000
  Cd  Cd3       1.0  0.7500000000000003  0.7499999999999999  0.49999999999999967  1.0000
  Pd  Pd1       1.0  0.3750000000000003  0.37500000000000017  0.7499999999999999  1.0000
  Pd  Pd2       1.0  0.37500000000000006  0.8750000000000002  0.7499999999999998  1.0000
  Pd  Pd3       1.0  0.8750000000000002  0.37500000000000006  0.7499999999999997  1.0000
  Pd  Pd4       1.0  0.8749999999999998  0.8750000000000002  0.7499999999999999  1.0000
  Pd  Pd5       1.0  0.12500000000000022  0.12499999999999992  0.25000000000000017  1.0000
  Pd  Pd6       1.0  0.12500000000000022  0.625  0.25000000000000006  1.0000
  Pd  Pd7       1.0  0.6250000000000002  0.12499999999999992  0.25000000000000006  1.0000
  Pd  Pd8       1.0  0.6250000000000002  0.625  0.25000000000000017  1.0000
