data_image0
_chemical_formula_structural       HfTi7Ni4Mo4
_chemical_formula_sum              "Hf1 Ti7 Ni4 Mo4"
_cell_length_a       8.712537
_cell_length_b       8.712537
_cell_length_c       4.3562685
_cell_angle_alpha    60.00000000000001
_cell_angle_beta     60.00000000000001
_cell_angle_gamma    60.00000000000001

_space_group_name_H-M_alt    "P 1"
_space_group_IT_number       1

loop_
  _space_group_symop_operation_xyz
  'x, y, z'

loop_
  _atom_site_type_symbol
  _atom_site_label
  _atom_site_symmetry_multiplicity
  _atom_site_fract_x
  _atom_site_fract_y
  _atom_site_fract_z
  _atom_site_occupancy
  Hf  Hf1       1.0  0.12500000000000006  0.1250000000000001  0.25  1.0000
  Ti  Ti1       1.0  0.12500000000000008  0.625  0.24999999999999986  1.0000
  Ti  Ti2       1.0  0.625  0.12500000000000003  0.24999999999999986  1.0000
  Ti  Ti3       1.0  0.625  0.625  0.24999999999999964  1.0000
  Ti  Ti4       1.0  0.3750000000000003  0.375  0.7500000000000002  1.0000
  Ti  Ti5       1.0  0.3750000000000003  0.8749999999999999  0.75  1.0000
  Ti  Ti6       1.0  0.8750000000000001  0.37499999999999994  0.7499999999999999  1.0000
  Ti  Ti7       1.0  0.8750000000000006  0.8749999999999998  0.7499999999999994  1.0000
  Ni  Ni1       1.0  0.25000000000000017  0.24999999999999994  0.49999999999999983  1.0000
  Ni  Ni2       1.0  0.25000000000000006  0.7499999999999999  0.4999999999999998  1.0000
  Ni  Ni3       1.0  0.75  0.24999999999999994  0.4999999999999998  1.0000
  Ni  Ni4       1.0  0.7500000000000003  0.7499999999999998  0.4999999999999997  1.0000
  Mo  Mo1       1.0  0.0  0.0  0.0  1.0000
  Mo  Mo2       1.0  0.0  0.5  0.0  1.0000
  Mo  Mo3       1.0  0.5  0.0  0.0  1.0000
  Mo  Mo4       1.0  0.5  0.5  0.9999999999999997  1.0000
