data_image0
_chemical_formula_structural       Yb4Sm4ZnCdZn6
_chemical_formula_sum              "Yb4 Sm4 Zn7 Cd1"
_cell_length_a       10.23742976
_cell_length_b       10.23742976
_cell_length_c       5.11871488
_cell_angle_alpha    60.00000000000001
_cell_angle_beta     60.00000000000001
_cell_angle_gamma    60.00000000000001

_space_group_name_H-M_alt    "P 1"
_space_group_IT_number       1

loop_
  _space_group_symop_operation_xyz
  'x, y, z'

loop_
  _atom_site_type_symbol
  _atom_site_label
  _atom_site_symmetry_multiplicity
  _atom_site_fract_x
  _atom_site_fract_y
  _atom_site_fract_z
  _atom_site_occupancy
  Yb  Yb1       1.0  0.0  0.0  0.0  1.0000
  Yb  Yb2       1.0  0.0  0.5000000000000001  0.9999999999999998  1.0000
  Yb  Yb3       1.0  0.5  0.0  0.0  1.0000
  Yb  Yb4       1.0  0.5000000000000001  0.49999999999999994  0.9999999999999998  1.0000
  Sm  Sm1       1.0  0.2499999999999999  0.24999999999999992  0.49999999999999967  1.0000
  Sm  Sm2       1.0  0.2499999999999999  0.7500000000000001  0.49999999999999967  1.0000
  Sm  Sm3       1.0  0.75  0.25  0.49999999999999967  1.0000
  Sm  Sm4       1.0  0.7500000000000001  0.7499999999999997  0.4999999999999994  1.0000
  Zn  Zn1       1.0  0.3749999999999999  0.375  0.7499999999999996  1.0000
  Cd  Cd1       1.0  0.3749999999999997  0.8750000000000001  0.7499999999999996  1.0000
  Zn  Zn2       1.0  0.8749999999999999  0.375  0.7499999999999996  1.0000
  Zn  Zn3       1.0  0.8749999999999998  0.8750000000000001  0.7499999999999992  1.0000
  Zn  Zn4       1.0  0.12499999999999994  0.12499999999999994  0.2499999999999997  1.0000
  Zn  Zn5       1.0  0.12499999999999994  0.625  0.24999999999999956  1.0000
  Zn  Zn6       1.0  0.625  0.1249999999999999  0.24999999999999975  1.0000
  Zn  Zn7       1.0  0.6249999999999999  0.6249999999999999  0.24999999999999944  1.0000
