data_image0
_chemical_formula_structural       YSc3In4Pd8
_chemical_formula_sum              "Y1 Sc3 In4 Pd8"
_cell_length_a       9.32311522
_cell_length_b       9.32311522
_cell_length_c       4.66155761
_cell_angle_alpha    60.00000000000001
_cell_angle_beta     60.00000000000001
_cell_angle_gamma    59.99999999999999

_space_group_name_H-M_alt    "P 1"
_space_group_IT_number       1

loop_
  _space_group_symop_operation_xyz
  'x, y, z'

loop_
  _atom_site_type_symbol
  _atom_site_label
  _atom_site_symmetry_multiplicity
  _atom_site_fract_x
  _atom_site_fract_y
  _atom_site_fract_z
  _atom_site_occupancy
  Y   Y1        1.0  0.25  0.2499999999999998  0.5  1.0000
  Sc  Sc1       1.0  0.24999999999999992  0.7499999999999999  0.4999999999999999  1.0000
  Sc  Sc2       1.0  0.75  0.2499999999999999  0.5  1.0000
  Sc  Sc3       1.0  0.7500000000000001  0.7499999999999998  0.5000000000000004  1.0000
  In  In1       1.0  0.0  0.0  0.0  1.0000
  In  In2       1.0  0.0  0.5  0.0  1.0000
  In  In3       1.0  0.5  0.0  5.5002007119062905e-17  1.0000
  In  In4       1.0  0.5  0.5  1.1000401423812581e-16  1.0000
  Pd  Pd1       1.0  0.37500000000000006  0.375  0.7500000000000002  1.0000
  Pd  Pd2       1.0  0.37500000000000017  0.8749999999999999  0.7500000000000001  1.0000
  Pd  Pd3       1.0  0.8750000000000002  0.3749999999999999  0.7500000000000002  1.0000
  Pd  Pd4       1.0  0.8750000000000002  0.8750000000000001  0.7499999999999999  1.0000
  Pd  Pd5       1.0  0.125  0.125  0.25  1.0000
  Pd  Pd6       1.0  0.125  0.625  0.25  1.0000
  Pd  Pd7       1.0  0.6250000000000001  0.12499999999999997  0.2500000000000001  1.0000
  Pd  Pd8       1.0  0.6250000000000002  0.6250000000000001  0.2500000000000002  1.0000
