data_image0
_chemical_formula_structural       Tm4Co8SnGeSn2
_chemical_formula_sum              "Tm4 Co8 Sn3 Ge1"
_cell_length_a       9.02265142
_cell_length_b       9.02265142
_cell_length_c       4.51132571
_cell_angle_alpha    60.00000000000001
_cell_angle_beta     60.00000000000001
_cell_angle_gamma    59.99999999999999

_space_group_name_H-M_alt    "P 1"
_space_group_IT_number       1

loop_
  _space_group_symop_operation_xyz
  'x, y, z'

loop_
  _atom_site_type_symbol
  _atom_site_label
  _atom_site_symmetry_multiplicity
  _atom_site_fract_x
  _atom_site_fract_y
  _atom_site_fract_z
  _atom_site_occupancy
  Tm  Tm1       1.0  0.0  0.0  0.0  1.0000
  Tm  Tm2       1.0  0.0  0.5  0.0  1.0000
  Tm  Tm3       1.0  0.5  0.0  0.0  1.0000
  Tm  Tm4       1.0  0.5  0.5  0.0  1.0000
  Co  Co1       1.0  0.12500000000000006  0.12500000000000006  0.24999999999999975  1.0000
  Co  Co2       1.0  0.125  0.6250000000000002  0.2499999999999999  1.0000
  Co  Co3       1.0  0.625  0.1250000000000001  0.24999999999999978  1.0000
  Co  Co4       1.0  0.625  0.6250000000000002  0.2499999999999999  1.0000
  Co  Co5       1.0  0.3750000000000002  0.37499999999999994  0.75  1.0000
  Co  Co6       1.0  0.3750000000000003  0.875  0.75  1.0000
  Co  Co7       1.0  0.8750000000000002  0.37500000000000006  0.7499999999999999  1.0000
  Co  Co8       1.0  0.8750000000000002  0.8750000000000001  0.7499999999999998  1.0000
  Sn  Sn1       1.0  0.2500000000000001  0.25000000000000006  0.5000000000000001  1.0000
  Ge  Ge1       1.0  0.2500000000000001  0.7500000000000001  0.5000000000000001  1.0000
  Sn  Sn2       1.0  0.7500000000000001  0.2500000000000001  0.5000000000000001  1.0000
  Sn  Sn3       1.0  0.7500000000000001  0.7500000000000001  0.5000000000000001  1.0000
