data_image0
_chemical_formula_structural       Yb12CuAuCu2
_chemical_formula_sum              "Yb12 Cu3 Au1"
_cell_length_a       9.730294
_cell_length_b       9.730294
_cell_length_c       4.865147
_cell_angle_alpha    90.0
_cell_angle_beta     90.0
_cell_angle_gamma    90.0

_space_group_name_H-M_alt    "P 1"
_space_group_IT_number       1

loop_
  _space_group_symop_operation_xyz
  'x, y, z'

loop_
  _atom_site_type_symbol
  _atom_site_label
  _atom_site_symmetry_multiplicity
  _atom_site_fract_x
  _atom_site_fract_y
  _atom_site_fract_z
  _atom_site_occupancy
  Yb  Yb1       1.0  0.0  0.25  0.49999999999999994  1.0000
  Yb  Yb2       1.0  0.0  0.75  0.5  1.0000
  Yb  Yb3       1.0  0.49999999999999994  0.25  0.5  1.0000
  Yb  Yb4       1.0  0.5  0.75  0.49999999999999994  1.0000
  Yb  Yb5       1.0  0.25  0.0  0.49999999999999994  1.0000
  Yb  Yb6       1.0  0.25000000000000006  0.5  0.5  1.0000
  Yb  Yb7       1.0  0.75  0.0  0.5  1.0000
  Yb  Yb8       1.0  0.75  0.5  0.49999999999999994  1.0000
  Yb  Yb9       1.0  0.25  0.25  0.0  1.0000
  Yb  Yb10      1.0  0.25000000000000006  0.75  0.0  1.0000
  Yb  Yb11      1.0  0.75  0.25  0.0  1.0000
  Yb  Yb12      1.0  0.7500000000000001  0.75  8.107266904998058e-32  1.0000
  Cu  Cu1       1.0  0.0  0.0  0.0  1.0000
  Au  Au1       1.0  0.0  0.5  0.0  1.0000
  Cu  Cu2       1.0  0.5  0.0  0.0  1.0000
  Cu  Cu3       1.0  0.5  0.5  0.0  1.0000
