data_image0
_chemical_formula_structural       Hf4Ti4Os2FeOs5
_chemical_formula_sum              "Hf4 Ti4 Os7 Fe1"
_cell_length_a       18.737076002885516
_cell_length_b       21.33075218
_cell_length_c       10.665376090036805
_cell_angle_alpha    62.366353509880355
_cell_angle_beta     63.946936664846106
_cell_angle_gamma    63.946936665

_space_group_name_H-M_alt    "P 1"
_space_group_IT_number       1

loop_
  _space_group_symop_operation_xyz
  'x, y, z'

loop_
  _atom_site_type_symbol
  _atom_site_label
  _atom_site_symmetry_multiplicity
  _atom_site_fract_x
  _atom_site_fract_y
  _atom_site_fract_z
  _atom_site_occupancy
  Hf  Hf1       1.0  0.25  0.5  0.0  1.0000
  Hf  Hf2       1.0  0.2499999999999999  5.449793596917083e-18  0.0  1.0000
  Hf  Hf3       1.0  0.7499999999999999  0.5  0.9999999999999999  1.0000
  Hf  Hf4       1.0  0.7500000000000002  0.0  1.879983177949989e-16  1.0000
  Ti  Ti1       1.0  0.0  0.0  0.0  1.0000
  Ti  Ti2       1.0  0.0  0.5  4.6999579448749726e-17  1.0000
  Ti  Ti3       1.0  0.5  7.237721544352367e-17  4.6999579448749726e-17  1.0000
  Ti  Ti4       1.0  0.4999999999999999  0.5000000000000001  9.399915889749945e-17  1.0000
  Os  Os1       1.0  0.37979399999999996  0.5  0.0  1.0000
  Os  Os2       1.0  0.379794  0.0  9.399915889749945e-17  1.0000
  Fe  Fe1       1.0  0.879794  0.5  0.0  1.0000
  Os  Os3       1.0  0.879794  0.0  1.879983177949989e-16  1.0000
  Os  Os4       1.0  0.12020599999999994  0.0  0.0  1.0000
  Os  Os5       1.0  0.12020600000000004  0.5  1.879983177949989e-16  1.0000
  Os  Os6       1.0  0.620206  0.0  1.879983177949989e-16  1.0000
  Os  Os7       1.0  0.620206  0.5  2.8199747669249837e-16  1.0000
