data_image0
_chemical_formula_structural       Sr5MgSr2Mg8
_chemical_formula_sum              "Sr7 Mg9"
_cell_length_a       8.01895
_cell_length_b       11.962498
_cell_length_c       6.116758
_cell_angle_alpha    90.0
_cell_angle_beta     90.0
_cell_angle_gamma    90.0

_space_group_name_H-M_alt    "P 1"
_space_group_IT_number       1

loop_
  _space_group_symop_operation_xyz
  'x, y, z'

loop_
  _atom_site_type_symbol
  _atom_site_label
  _atom_site_symmetry_multiplicity
  _atom_site_fract_x
  _atom_site_fract_y
  _atom_site_fract_z
  _atom_site_occupancy
  Sr  Sr1       1.0  0.25  0.125  0.28742899999999993  1.0000
  Sr  Sr2       1.0  0.25  0.625  0.287429  1.0000
  Sr  Sr3       1.0  0.7500000000000001  0.125  0.287429  1.0000
  Sr  Sr4       1.0  0.75  0.625  0.287429  1.0000
  Sr  Sr5       1.0  0.25  0.37500000000000006  0.7125709999999997  1.0000
  Mg  Mg1       1.0  0.25  0.8750000000000001  0.7125709999999997  1.0000
  Sr  Sr6       1.0  0.75  0.37500000000000006  0.7125709999999997  1.0000
  Sr  Sr7       1.0  0.75  0.8750000000000001  0.712571  1.0000
  Mg  Mg2       1.0  0.0  0.37500000000000006  0.189464  1.0000
  Mg  Mg3       1.0  0.0  0.8750000000000001  0.189464  1.0000
  Mg  Mg4       1.0  0.5  0.37500000000000006  0.189464  1.0000
  Mg  Mg5       1.0  0.5  0.8750000000000001  0.189464  1.0000
  Mg  Mg6       1.0  0.0  0.125  0.810536  1.0000
  Mg  Mg7       1.0  2.4593647086620186e-32  0.625  0.8105359999999998  1.0000
  Mg  Mg8       1.0  0.4999999999999999  0.125  0.810536  1.0000
  Mg  Mg9       1.0  0.4999999999999999  0.625  0.810536  1.0000
