data_image0
_chemical_formula_structural       ScY7Cu4Au4
_chemical_formula_sum              "Sc1 Y7 Cu4 Au4"
_cell_length_a       22.089548002375494
_cell_length_b       23.281849539999996
_cell_length_c       11.640924769198026
_cell_angle_alpha    61.24893341233669
_cell_angle_beta     61.68008730259881
_cell_angle_gamma    61.6800873

_space_group_name_H-M_alt    "P 1"
_space_group_IT_number       1

loop_
  _space_group_symop_operation_xyz
  'x, y, z'

loop_
  _atom_site_type_symbol
  _atom_site_label
  _atom_site_symmetry_multiplicity
  _atom_site_fract_x
  _atom_site_fract_y
  _atom_site_fract_z
  _atom_site_occupancy
  Sc  Sc1       1.0  0.3747229999999999  0.5  0.9999999999999996  1.0000
  Y   Y1        1.0  0.37472299999999986  0.0  0.9999999999999998  1.0000
  Y   Y2        1.0  0.8747229999999999  0.5  0.9999999999999996  1.0000
  Y   Y3        1.0  0.8747229999999999  3.814896313001966e-17  0.9999999999999996  1.0000
  Y   Y4        1.0  0.12527700000000014  0.5  4.351338943477589e-17  1.0000
  Y   Y5        1.0  0.12527699999999997  2.6162702227087106e-18  0.0  1.0000
  Y   Y6        1.0  0.625277  0.5  0.0  1.0000
  Y   Y7        1.0  0.6252769999999999  0.0  0.0  1.0000
  Cu  Cu1       1.0  0.0  0.0  0.0  1.0000
  Cu  Cu2       1.0  9.638562100604089e-17  0.49999999999999994  0.0  1.0000
  Cu  Cu3       1.0  0.4999999999999999  1.0465080890834842e-17  0.0  1.0000
  Cu  Cu4       1.0  0.4999999999999999  0.4999999999999999  0.9999999999999996  1.0000
  Au  Au1       1.0  0.25000000000000006  0.49999999999999994  0.9999999999999999  1.0000
  Au  Au2       1.0  0.25  0.0  8.702677886955178e-17  1.0000
  Au  Au3       1.0  0.7500000000000001  0.5  0.0  1.0000
  Au  Au4       1.0  0.7499999999999999  0.0  0.9999999999999996  1.0000
