data_image0
_chemical_formula_structural       C12NBiN2
_chemical_formula_sum              "C12 N3 Bi1"
_cell_length_a       6.636576
_cell_length_b       6.636576
_cell_length_c       3.318288
_cell_angle_alpha    90.0
_cell_angle_beta     90.0
_cell_angle_gamma    90.0

_space_group_name_H-M_alt    "P 1"
_space_group_IT_number       1

loop_
  _space_group_symop_operation_xyz
  'x, y, z'

loop_
  _atom_site_type_symbol
  _atom_site_label
  _atom_site_symmetry_multiplicity
  _atom_site_fract_x
  _atom_site_fract_y
  _atom_site_fract_z
  _atom_site_occupancy
  C   C1        1.0  0.0  0.0  0.5  1.0000
  C   C2        1.0  0.0  0.5  0.5  1.0000
  C   C3        1.0  0.5  0.0  0.5  1.0000
  C   C4        1.0  0.5  0.5  0.5  1.0000
  C   C5        1.0  0.0  0.25  0.0  1.0000
  C   C6        1.0  0.0  0.7500000000000001  0.0  1.0000
  C   C7        1.0  0.5000000000000001  0.25  0.0  1.0000
  C   C8        1.0  0.5  0.7500000000000001  0.0  1.0000
  C   C9        1.0  0.25  0.0  0.0  1.0000
  C   C10       1.0  0.24999999999999997  0.5  0.0  1.0000
  C   C11       1.0  0.7500000000000001  0.0  1.485820597136633e-32  1.0000
  C   C12       1.0  0.7500000000000001  0.5  0.0  1.0000
  N   N1        1.0  0.0  0.0  0.0  1.0000
  Bi  Bi1       1.0  0.0  0.5  0.0  1.0000
  N   N2        1.0  0.5  0.0  0.0  1.0000
  N   N3        1.0  0.5  0.5  0.0  1.0000
