data_image0
_chemical_formula_structural       Zr4In4Ru6FeRu
_chemical_formula_sum              "Zr4 In4 Ru7 Fe1"
_cell_length_a       19.75651599919526
_cell_length_b       21.2612393
_cell_length_c       10.630619649941384
_cell_angle_alpha    63.3217914401948
_cell_angle_beta     62.31479115021818
_cell_angle_gamma    62.314791150000005

_space_group_name_H-M_alt    "P 1"
_space_group_IT_number       1

loop_
  _space_group_symop_operation_xyz
  'x, y, z'

loop_
  _atom_site_type_symbol
  _atom_site_label
  _atom_site_symmetry_multiplicity
  _atom_site_fract_x
  _atom_site_fract_y
  _atom_site_fract_z
  _atom_site_occupancy
  Zr  Zr1       1.0  0.0  0.0  0.0  1.0000
  Zr  Zr2       1.0  1.0730934290618572e-16  0.4999999999999999  4.675160943894301e-17  1.0000
  Zr  Zr3       1.0  0.5000000000000001  0.9999999999999999  0.9999999999999998  1.0000
  Zr  Zr4       1.0  0.5000000000000001  0.4999999999999999  9.350321887788602e-17  1.0000
  In  In1       1.0  0.24999999999999994  8.354907323771341e-17  0.9999999999999998  1.0000
  In  In2       1.0  0.25000000000000017  0.5  0.0  1.0000
  In  In3       1.0  0.7500000000000001  0.0  0.0  1.0000
  In  In4       1.0  0.7499999999999999  0.4999999999999999  2.80509656633658e-16  1.0000
  Ru  Ru1       1.0  0.3861705000000001  0.0  0.9999999999999996  1.0000
  Ru  Ru2       1.0  0.3861705  0.4999999999999999  0.9999999999999999  1.0000
  Ru  Ru3       1.0  0.8861705  0.9999999999999998  0.9999999999999998  1.0000
  Ru  Ru4       1.0  0.8861705000000002  0.49999999999999994  2.80509656633658e-16  1.0000
  Ru  Ru5       1.0  0.11382949999999992  1.2532360985657012e-16  0.9999999999999998  1.0000
  Ru  Ru6       1.0  0.11382950000000004  0.5000000000000001  4.675160943894301e-17  1.0000
  Fe  Fe1       1.0  0.6138295  7.305382341444496e-17  4.675160943894301e-17  1.0000
  Ru  Ru7       1.0  0.6138295000000002  0.49999999999999994  0.9999999999999999  1.0000
