data_image0
_chemical_formula_structural       Rb4Nd4Te6OTe
_chemical_formula_sum              "Rb4 Nd4 Te7 O1"
_cell_length_a       9.308780034135484
_cell_length_b       9.308780034135484
_cell_length_c       8.99239767
_cell_angle_alpha    75.00137596483944
_cell_angle_beta     75.00137596483944
_cell_angle_gamma    59.999999733570235

_space_group_name_H-M_alt    "P 1"
_space_group_IT_number       1

loop_
  _space_group_symop_operation_xyz
  'x, y, z'

loop_
  _atom_site_type_symbol
  _atom_site_label
  _atom_site_symmetry_multiplicity
  _atom_site_fract_x
  _atom_site_fract_y
  _atom_site_fract_z
  _atom_site_occupancy
  Rb  Rb1       1.0  0.25  0.24999999999999994  0.5  1.0000
  Rb  Rb2       1.0  0.25  0.7499999999999998  0.5000000000000001  1.0000
  Rb  Rb3       1.0  0.7500000000000002  0.24999999999999983  0.4999999999999999  1.0000
  Rb  Rb4       1.0  0.7500000000000002  0.7500000000000001  0.5  1.0000
  Nd  Nd1       1.0  0.0  0.0  0.0  1.0000
  Nd  Nd2       1.0  0.0  0.5  0.0  1.0000
  Nd  Nd3       1.0  0.5  0.0  0.0  1.0000
  Nd  Nd4       1.0  0.5  0.4999999999999999  0.0  1.0000
  Te  Te1       1.0  0.13252350000000007  0.13252350000000002  0.20485900000000012  1.0000
  Te  Te2       1.0  0.13252350000000007  0.6325234999999999  0.20485900000000015  1.0000
  Te  Te3       1.0  0.6325235000000002  0.13252349999999996  0.20485900000000015  1.0000
  Te  Te4       1.0  0.6325235000000002  0.6325235  0.20485900000000015  1.0000
  Te  Te5       1.0  0.36747650000000015  0.3674765  0.7951410000000001  1.0000
  Te  Te6       1.0  0.36747650000000015  0.8674765  0.7951410000000001  1.0000
  O   O1        1.0  0.8674765000000002  0.36747649999999993  0.7951410000000001  1.0000
  Te  Te7       1.0  0.8674765000000002  0.8674765000000001  0.7951410000000001  1.0000
