data_image0
_chemical_formula_structural       LiRbLi2Lu8Tc4
_chemical_formula_sum              "Li3 Rb1 Lu8 Tc4"
_cell_length_a       9.71321756
_cell_length_b       9.71321756
_cell_length_c       4.85660878
_cell_angle_alpha    60.00000000000001
_cell_angle_beta     60.00000000000001
_cell_angle_gamma    60.00000000000001

_space_group_name_H-M_alt    "P 1"
_space_group_IT_number       1

loop_
  _space_group_symop_operation_xyz
  'x, y, z'

loop_
  _atom_site_type_symbol
  _atom_site_label
  _atom_site_symmetry_multiplicity
  _atom_site_fract_x
  _atom_site_fract_y
  _atom_site_fract_z
  _atom_site_occupancy
  Li  Li1       1.0  0.25000000000000006  0.25  0.5  1.0000
  Rb  Rb1       1.0  0.25000000000000017  0.7500000000000001  0.5  1.0000
  Li  Li2       1.0  0.7500000000000002  0.24999999999999986  0.4999999999999999  1.0000
  Li  Li3       1.0  0.75  0.7499999999999999  0.5000000000000002  1.0000
  Lu  Lu1       1.0  0.37499999999999994  0.375  0.75  1.0000
  Lu  Lu2       1.0  0.3749999999999997  0.875  0.7499999999999997  1.0000
  Lu  Lu3       1.0  0.875  0.3749999999999998  0.7499999999999999  1.0000
  Lu  Lu4       1.0  0.8749999999999999  0.875  0.7499999999999998  1.0000
  Lu  Lu5       1.0  0.12500000000000003  0.125  0.25  1.0000
  Lu  Lu6       1.0  0.12500000000000008  0.625  0.25  1.0000
  Lu  Lu7       1.0  0.625  0.12499999999999996  0.25  1.0000
  Lu  Lu8       1.0  0.6249999999999999  0.6249999999999999  0.2499999999999999  1.0000
  Tc  Tc1       1.0  0.0  0.0  0.0  1.0000
  Tc  Tc2       1.0  0.0  0.5  0.0  1.0000
  Tc  Tc3       1.0  0.5  0.0  5.2793015963526274e-17  1.0000
  Tc  Tc4       1.0  0.5  0.5  0.0  1.0000
