data_image0
_chemical_formula_structural       Y3ScTa4Os8
_chemical_formula_sum              "Y3 Sc1 Ta4 Os8"
_cell_length_a       19.779004001992934
_cell_length_b       22.52045398
_cell_length_c       11.260226989154113
_cell_angle_alpha    62.4602617826098
_cell_angle_beta     63.951345968351035
_cell_angle_gamma    63.951345965

_space_group_name_H-M_alt    "P 1"
_space_group_IT_number       1

loop_
  _space_group_symop_operation_xyz
  'x, y, z'

loop_
  _atom_site_type_symbol
  _atom_site_label
  _atom_site_symmetry_multiplicity
  _atom_site_fract_x
  _atom_site_fract_y
  _atom_site_fract_z
  _atom_site_occupancy
  Y   Y1        1.0  0.0  0.0  0.0  1.0000
  Y   Y2        1.0  1.0466680459108286e-16  0.49999999999999994  1.7791439010690228e-16  1.0000
  Y   Y3        1.0  0.49999999999999994  8.590810645326534e-18  1.3343579258017671e-16  1.0000
  Sc  Sc1       1.0  0.4999999999999999  0.49999999999999994  2.6687158516035343e-16  1.0000
  Ta  Ta1       1.0  0.25000000000000006  0.0  0.9999999999999998  1.0000
  Ta  Ta2       1.0  0.24999999999999994  0.5  0.9999999999999998  1.0000
  Ta  Ta3       1.0  0.75  3.943874401861082e-17  0.9999999999999997  1.0000
  Ta  Ta4       1.0  0.75  0.49999999999999983  0.9999999999999997  1.0000
  Os  Os1       1.0  0.3655710000000001  0.0  0.9999999999999997  1.0000
  Os  Os2       1.0  0.3655710000000001  0.49999999999999983  0.9999999999999998  1.0000
  Os  Os3       1.0  0.865571  0.0  0.9999999999999997  1.0000
  Os  Os4       1.0  0.8655710000000002  0.5  0.9999999999999997  1.0000
  Os  Os5       1.0  0.134429  0.5  0.9999999999999998  1.0000
  Os  Os6       1.0  0.13442900000000005  0.0  0.9999999999999998  1.0000
  Os  Os7       1.0  0.634429  0.49999999999999983  0.9999999999999997  1.0000
  Os  Os8       1.0  0.6344289999999998  0.0  0.9999999999999997  1.0000
