data_image0
_chemical_formula_structural       Ti8CaBe3Zn4
_chemical_formula_sum              "Ti8 Ca1 Be3 Zn4"
_cell_length_a       21.179716618354078
_cell_length_b       21.17971662
_cell_length_c       10.58985831
_cell_angle_alpha    89.48433502
_cell_angle_beta     60.11330896257658
_cell_angle_gamma    119.51910250740433

_space_group_name_H-M_alt    "P 1"
_space_group_IT_number       1

loop_
  _space_group_symop_operation_xyz
  'x, y, z'

loop_
  _atom_site_type_symbol
  _atom_site_label
  _atom_site_symmetry_multiplicity
  _atom_site_fract_x
  _atom_site_fract_y
  _atom_site_fract_z
  _atom_site_occupancy
  Ti  Ti1       1.0  0.11916799999999998  0.9999999999999998  0.7616640000000001  1.0000
  Ti  Ti2       1.0  0.1191680000000001  0.4999999999999999  0.761664  1.0000
  Ti  Ti3       1.0  0.6191680000000002  0.9999999999999998  0.7616639999999998  1.0000
  Ti  Ti4       1.0  0.6191680000000002  0.4999999999999999  0.761664  1.0000
  Ti  Ti5       1.0  0.38083200000000017  0.0  0.23833599999999985  1.0000
  Ti  Ti6       1.0  0.3808320000000001  0.4999999999999999  0.23833599999999977  1.0000
  Ti  Ti7       1.0  0.880832  2.4095461730272383e-17  0.23833599999999977  1.0000
  Ti  Ti8       1.0  0.8808320000000004  0.5000000000000001  0.23833600000000002  1.0000
  Ca  Ca1       1.0  0.0  0.0  0.0  1.0000
  Be  Be1       1.0  0.0  0.5  0.0  1.0000
  Be  Be2       1.0  0.5  0.0  3.2761977076477186e-17  1.0000
  Be  Be3       1.0  0.49999999999999994  0.4999999999999999  0.9999999999999999  1.0000
  Zn  Zn1       1.0  0.25000000000000006  0.0  0.5  1.0000
  Zn  Zn2       1.0  0.24999999999999992  0.4999999999999999  0.49999999999999967  1.0000
  Zn  Zn3       1.0  0.7500000000000002  0.0  0.49999999999999994  1.0000
  Zn  Zn4       1.0  0.7500000000000001  0.4999999999999999  0.5  1.0000
