data_image0
_chemical_formula_structural       K2NaKBa4Au8
_chemical_formula_sum              "K3 Na1 Ba4 Au8"
_cell_length_a       25.013084004015735
_cell_length_b       26.042370919999996
_cell_length_c       13.021185459367459
_cell_angle_alpha    60.8289946216339
_cell_angle_beta     61.29903794177986
_cell_angle_gamma    61.29903794

_space_group_name_H-M_alt    "P 1"
_space_group_IT_number       1

loop_
  _space_group_symop_operation_xyz
  'x, y, z'

loop_
  _atom_site_type_symbol
  _atom_site_label
  _atom_site_symmetry_multiplicity
  _atom_site_fract_x
  _atom_site_fract_y
  _atom_site_fract_z
  _atom_site_occupancy
  K   K1        1.0  0.0  0.0  0.0  1.0000
  K   K2        1.0  0.0  0.4999999999999999  0.9999999999999999  1.0000
  Na  Na1       1.0  0.5000000000000001  0.0  0.0  1.0000
  K   K3        1.0  0.5000000000000002  0.49999999999999983  0.9999999999999998  1.0000
  Ba  Ba1       1.0  0.24999999999999997  3.410512900029477e-17  0.0  1.0000
  Ba  Ba2       1.0  0.2500000000000001  0.4999999999999999  0.9999999999999999  1.0000
  Ba  Ba3       1.0  0.75  0.0  0.9999999999999999  1.0000
  Ba  Ba4       1.0  0.7500000000000001  0.49999999999999983  0.9999999999999998  1.0000
  Au  Au1       1.0  0.374283  3.410512900029477e-17  0.0  1.0000
  Au  Au2       1.0  0.37428300000000014  0.4999999999999999  0.0  1.0000
  Au  Au3       1.0  0.8742830000000003  0.0  0.0  1.0000
  Au  Au4       1.0  0.8742830000000003  0.5  0.9999999999999998  1.0000
  Au  Au5       1.0  0.1257169999999999  6.821025800058954e-17  0.0  1.0000
  Au  Au6       1.0  0.12571700000000005  0.5  0.9999999999999999  1.0000
  Au  Au7       1.0  0.6257170000000001  3.410512900029477e-17  0.9999999999999999  1.0000
  Au  Au8       1.0  0.6257170000000002  0.49999999999999983  0.9999999999999998  1.0000
