data_image0
_chemical_formula_structural       Ca8Cd4InGa3
_chemical_formula_sum              "Ca8 Cd4 In1 Ga3"
_cell_length_a       10.63192746
_cell_length_b       10.631927459999998
_cell_length_c       5.31596373
_cell_angle_alpha    60.00000000000001
_cell_angle_beta     60.00000000000001
_cell_angle_gamma    60.00000000000001

_space_group_name_H-M_alt    "P 1"
_space_group_IT_number       1

loop_
  _space_group_symop_operation_xyz
  'x, y, z'

loop_
  _atom_site_type_symbol
  _atom_site_label
  _atom_site_symmetry_multiplicity
  _atom_site_fract_x
  _atom_site_fract_y
  _atom_site_fract_z
  _atom_site_occupancy
  Ca  Ca1       1.0  0.1250000000000002  0.12500000000000006  0.24999999999999983  1.0000
  Ca  Ca2       1.0  0.12500000000000003  0.625  0.24999999999999978  1.0000
  Ca  Ca3       1.0  0.6250000000000002  0.12500000000000006  0.24999999999999983  1.0000
  Ca  Ca4       1.0  0.6250000000000002  0.625  0.24999999999999967  1.0000
  Ca  Ca5       1.0  0.3749999999999999  0.3749999999999999  0.7499999999999997  1.0000
  Ca  Ca6       1.0  0.37499999999999994  0.8749999999999999  0.7499999999999997  1.0000
  Ca  Ca7       1.0  0.875  0.37499999999999983  0.7499999999999996  1.0000
  Ca  Ca8       1.0  0.875  0.8749999999999999  0.75  1.0000
  Cd  Cd1       1.0  0.25  0.2500000000000001  0.5  1.0000
  Cd  Cd2       1.0  0.24999999999999994  0.7500000000000002  0.5  1.0000
  Cd  Cd3       1.0  0.75  0.25000000000000017  0.5000000000000001  1.0000
  Cd  Cd4       1.0  0.75  0.7500000000000002  0.49999999999999994  1.0000
  In  In1       1.0  0.0  0.0  0.0  1.0000
  Ga  Ga1       1.0  0.0  0.5  0.0  1.0000
  Ga  Ga2       1.0  0.5  1.2057786596821925e-17  0.0  1.0000
  Ga  Ga3       1.0  0.5  0.5  0.0  1.0000
