data_image0
_chemical_formula_structural       Tc4MnTc7Pt4
_chemical_formula_sum              "Tc11 Mn1 Pt4"
_cell_length_a       5.524616000699367
_cell_length_b       5.52461444
_cell_length_c       8.955736
_cell_angle_alpha    90.00000000000001
_cell_angle_beta     90.0
_cell_angle_gamma    120.00000934499998

_space_group_name_H-M_alt    "P 1"
_space_group_IT_number       1

loop_
  _space_group_symop_operation_xyz
  'x, y, z'

loop_
  _atom_site_type_symbol
  _atom_site_label
  _atom_site_symmetry_multiplicity
  _atom_site_fract_x
  _atom_site_fract_y
  _atom_site_fract_z
  _atom_site_occupancy
  Tc  Tc1       1.0  0.33333333333333326  0.16666666666666666  1.1010553811839303e-32  1.0000
  Tc  Tc2       1.0  0.33333333333333315  0.6666666666666667  1.607189504102778e-32  1.0000
  Tc  Tc3       1.0  0.8333333333333331  0.16666666666666663  1.1010553811839303e-32  1.0000
  Tc  Tc4       1.0  0.8333333333333331  0.6666666666666666  2.2021107623678606e-32  1.0000
  Mn  Mn1       1.0  0.16666666666666669  0.3333333333333334  0.24428899999999998  1.0000
  Tc  Tc5       1.0  0.1666666666666665  0.8333333333333333  0.24428899999999998  1.0000
  Tc  Tc6       1.0  0.6666666666666667  0.3333333333333333  0.24428899999999998  1.0000
  Tc  Tc7       1.0  0.6666666666666665  0.8333333333333334  0.24428899999999992  1.0000
  Tc  Tc8       1.0  0.16666666666666669  0.3333333333333334  0.755711  1.0000
  Tc  Tc9       1.0  0.1666666666666665  0.8333333333333333  0.755711  1.0000
  Tc  Tc10      1.0  0.6666666666666667  0.3333333333333333  0.755711  1.0000
  Tc  Tc11      1.0  0.6666666666666665  0.8333333333333334  0.755711  1.0000
  Pt  Pt1       1.0  0.33333333333333326  0.16666666666666666  0.5  1.0000
  Pt  Pt2       1.0  0.33333333333333315  0.6666666666666667  0.5  1.0000
  Pt  Pt3       1.0  0.8333333333333331  0.16666666666666663  0.4999999999999999  1.0000
  Pt  Pt4       1.0  0.8333333333333331  0.6666666666666666  0.4999999999999999  1.0000
