data_image0
_chemical_formula_structural       Y4Ag8CPb3
_chemical_formula_sum              "Y4 Ag8 C1 Pb3"
_cell_length_a       22.747511994508233
_cell_length_b       24.28327292
_cell_length_c       12.14163645910129
_cell_angle_alpha    61.11747627250398
_cell_angle_beta     62.07092571287586
_cell_angle_gamma    62.07092570999999

_space_group_name_H-M_alt    "P 1"
_space_group_IT_number       1

loop_
  _space_group_symop_operation_xyz
  'x, y, z'

loop_
  _atom_site_type_symbol
  _atom_site_label
  _atom_site_symmetry_multiplicity
  _atom_site_fract_x
  _atom_site_fract_y
  _atom_site_fract_z
  _atom_site_occupancy
  Y   Y1        1.0  0.0  0.0  0.0  1.0000
  Y   Y2        1.0  0.0  0.5  4.177162230391347e-17  1.0000
  Y   Y3        1.0  0.5  6.306329191266005e-17  4.177162230391347e-17  1.0000
  Y   Y4        1.0  0.4999999999999999  0.5000000000000001  0.0  1.0000
  Ag  Ag1       1.0  0.3749655  0.49999999999999994  0.9999999999999999  1.0000
  Ag  Ag2       1.0  0.3749655000000001  0.0  0.0  1.0000
  Ag  Ag3       1.0  0.8749655000000001  0.49999999999999994  0.0  1.0000
  Ag  Ag4       1.0  0.8749655000000001  2.5980704419833787e-16  0.9999999999999998  1.0000
  Ag  Ag5       1.0  0.12503449999999994  4.5719661772230184e-17  0.0  1.0000
  Ag  Ag6       1.0  0.12503449999999997  0.5000000000000001  0.0  1.0000
  Ag  Ag7       1.0  0.6250344999999999  7.31514588355683e-17  0.0  1.0000
  Ag  Ag8       1.0  0.6250344999999999  0.5000000000000001  8.354324460782694e-17  1.0000
  C   C1        1.0  0.2500000000000001  0.5  0.9999999999999999  1.0000
  Pb  Pb1       1.0  0.25000000000000017  0.0  1.8797230036761062e-16  1.0000
  Pb  Pb2       1.0  0.7500000000000001  0.5000000000000001  1.6708648921565388e-16  1.0000
  Pb  Pb3       1.0  0.7500000000000001  0.0  0.9999999999999999  1.0000
