data_image0
_chemical_formula_structural       Cr4GaInGa2Rh8
_chemical_formula_sum              "Cr4 Ga3 In1 Rh8"
_cell_length_a       18.38728400826024
_cell_length_b       19.905327339999996
_cell_length_c       9.952663670254816
_cell_angle_alpha    61.79752623912209
_cell_angle_beta     62.49226117397343
_cell_angle_gamma    62.492261174999996

_space_group_name_H-M_alt    "P 1"
_space_group_IT_number       1

loop_
  _space_group_symop_operation_xyz
  'x, y, z'

loop_
  _atom_site_type_symbol
  _atom_site_label
  _atom_site_symmetry_multiplicity
  _atom_site_fract_x
  _atom_site_fract_y
  _atom_site_fract_z
  _atom_site_occupancy
  Cr  Cr1       1.0  0.0  0.0  0.0  1.0000
  Cr  Cr2       1.0  0.0  0.5  0.0  1.0000
  Cr  Cr3       1.0  0.5000000000000001  0.9999999999999999  2.0252352021736093e-16  1.0000
  Cr  Cr4       1.0  0.5000000000000001  0.49999999999999994  0.0  1.0000
  Ga  Ga1       1.0  0.25  0.0  0.0  1.0000
  In  In1       1.0  0.25  0.5  1.0126176010868046e-16  1.0000
  Ga  Ga2       1.0  0.7500000000000001  0.9999999999999999  1.0126176010868046e-16  1.0000
  Ga  Ga3       1.0  0.7500000000000002  0.49999999999999983  1.0126176010868046e-16  1.0000
  Rh  Rh1       1.0  0.38754750000000004  3.8638239433869713e-17  2.5315440027170116e-17  1.0000
  Rh  Rh2       1.0  0.38754750000000004  0.5  1.0126176010868046e-16  1.0000
  Rh  Rh3       1.0  0.8875475000000002  0.0  0.0  1.0000
  Rh  Rh4       1.0  0.8875475000000003  0.49999999999999983  2.0252352021736093e-16  1.0000
  Rh  Rh5       1.0  0.11245250000000002  2.2310068167412647e-17  0.0  1.0000
  Rh  Rh6       1.0  0.11245249999999998  0.49999999999999994  1.0126176010868046e-16  1.0000
  Rh  Rh7       1.0  0.6124525000000001  0.9999999999999999  2.0252352021736093e-16  1.0000
  Rh  Rh8       1.0  0.6124525000000002  0.49999999999999983  0.9999999999999999  1.0000
