data_image0
_chemical_formula_structural       Be8Pd2NiPdPt4
_chemical_formula_sum              "Be8 Pd3 Ni1 Pt4"
_cell_length_a       8.03413594
_cell_length_b       8.034135939999999
_cell_length_c       4.017067969999999
_cell_angle_alpha    59.99999999999999
_cell_angle_beta     60.00000000000001
_cell_angle_gamma    60.00000000000001

_space_group_name_H-M_alt    "P 1"
_space_group_IT_number       1

loop_
  _space_group_symop_operation_xyz
  'x, y, z'

loop_
  _atom_site_type_symbol
  _atom_site_label
  _atom_site_symmetry_multiplicity
  _atom_site_fract_x
  _atom_site_fract_y
  _atom_site_fract_z
  _atom_site_occupancy
  Be  Be1       1.0  0.12500000000000006  0.12500000000000014  0.2500000000000004  1.0000
  Be  Be2       1.0  0.12499999999999996  0.6250000000000002  0.2500000000000005  1.0000
  Be  Be3       1.0  0.6250000000000001  0.12500000000000014  0.2500000000000003  1.0000
  Be  Be4       1.0  0.6250000000000002  0.625  0.2500000000000004  1.0000
  Be  Be5       1.0  0.37500000000000017  0.375  0.7500000000000001  1.0000
  Be  Be6       1.0  0.37500000000000017  0.875  0.7500000000000004  1.0000
  Be  Be7       1.0  0.8750000000000002  0.3749999999999999  0.7500000000000004  1.0000
  Be  Be8       1.0  0.875  0.875  0.7500000000000006  1.0000
  Pd  Pd1       1.0  0.25000000000000017  0.24999999999999994  0.5000000000000002  1.0000
  Pd  Pd2       1.0  0.25000000000000017  0.75  0.5000000000000003  1.0000
  Ni  Ni1       1.0  0.7500000000000003  0.25000000000000006  0.5000000000000002  1.0000
  Pd  Pd3       1.0  0.7500000000000001  0.7499999999999999  0.4999999999999999  1.0000
  Pt  Pt1       1.0  0.0  0.0  0.0  1.0000
  Pt  Pt2       1.0  0.0  0.5  0.0  1.0000
  Pt  Pt3       1.0  0.49999999999999994  1.5956602350640703e-17  0.9999999999999999  1.0000
  Pt  Pt4       1.0  0.49999999999999994  0.5  0.9999999999999999  1.0000
