data_image0
_chemical_formula_structural       BeBaBe2Al4B4
_chemical_formula_sum              "Be3 Ba1 Al4 B4"
_cell_length_a       7.0183629
_cell_length_b       7.018362899999999
_cell_length_c       3.5091814499999994
_cell_angle_alpha    60.00000000000001
_cell_angle_beta     60.00000000000001
_cell_angle_gamma    60.00000000000001

_space_group_name_H-M_alt    "P 1"
_space_group_IT_number       1

loop_
  _space_group_symop_operation_xyz
  'x, y, z'

loop_
  _atom_site_type_symbol
  _atom_site_label
  _atom_site_symmetry_multiplicity
  _atom_site_fract_x
  _atom_site_fract_y
  _atom_site_fract_z
  _atom_site_occupancy
  Be  Be1       1.0  0.24999999999999994  0.24999999999999997  0.4999999999999997  1.0000
  Ba  Ba1       1.0  0.25000000000000017  0.75  0.4999999999999996  1.0000
  Be  Be2       1.0  0.7500000000000001  0.25000000000000006  0.4999999999999996  1.0000
  Be  Be3       1.0  0.7499999999999999  0.7499999999999999  0.4999999999999995  1.0000
  Al  Al1       1.0  0.0  0.0  0.0  1.0000
  Al  Al2       1.0  0.0  0.5  0.0  1.0000
  Al  Al3       1.0  0.49999999999999994  0.0  0.0  1.0000
  Al  Al4       1.0  0.49999999999999994  0.5  0.9999999999999998  1.0000
  B   B1        1.0  0.37499999999999994  0.375  0.7499999999999998  1.0000
  B   B2        1.0  0.37500000000000006  0.8749999999999998  0.7499999999999996  1.0000
  B   B3        1.0  0.8750000000000001  0.37499999999999983  0.7499999999999996  1.0000
  B   B4        1.0  0.8749999999999998  0.8749999999999999  0.7499999999999992  1.0000
