data_image0
_chemical_formula_structural       Ti4As2PAsRh4
_chemical_formula_sum              "Ti4 As3 P1 Rh4"
_cell_length_a       8.43050888
_cell_length_b       8.43050888
_cell_length_c       4.21525444
_cell_angle_alpha    60.00000000000001
_cell_angle_beta     60.00000000000001
_cell_angle_gamma    59.99999999999999

_space_group_name_H-M_alt    "P 1"
_space_group_IT_number       1

loop_
  _space_group_symop_operation_xyz
  'x, y, z'

loop_
  _atom_site_type_symbol
  _atom_site_label
  _atom_site_symmetry_multiplicity
  _atom_site_fract_x
  _atom_site_fract_y
  _atom_site_fract_z
  _atom_site_occupancy
  Ti  Ti1       1.0  0.37499999999999994  0.37500000000000017  0.7500000000000001  1.0000
  Ti  Ti2       1.0  0.3750000000000002  0.875  0.7500000000000003  1.0000
  Ti  Ti3       1.0  0.8750000000000003  0.3750000000000001  0.7500000000000004  1.0000
  Ti  Ti4       1.0  0.875  0.875  0.7500000000000003  1.0000
  As  As1       1.0  0.0  0.0  0.0  1.0000
  As  As2       1.0  0.0  0.5  0.0  1.0000
  P   P1        1.0  0.5  0.0  6.08255156362855e-17  1.0000
  As  As3       1.0  0.5  0.5  1.21651031272571e-16  1.0000
  Rh  Rh1       1.0  0.25  0.25000000000000006  0.5  1.0000
  Rh  Rh2       1.0  0.25000000000000006  0.75  0.4999999999999999  1.0000
  Rh  Rh3       1.0  0.7499999999999999  0.25  0.5  1.0000
  Rh  Rh4       1.0  0.7500000000000003  0.75  0.5000000000000003  1.0000
