data_image0
_chemical_formula_structural       Nd4Rh4C5SiC2
_chemical_formula_sum              "Nd4 Rh4 C7 Si1"
_cell_length_a       7.436728
_cell_length_b       8.15060308
_cell_length_c       4.07530154
_cell_angle_alpha    109.03897754000002
_cell_angle_beta     90.00000000000001
_cell_angle_gamma    90.00000000000001

_space_group_name_H-M_alt    "P 1"
_space_group_IT_number       1

loop_
  _space_group_symop_operation_xyz
  'x, y, z'

loop_
  _atom_site_type_symbol
  _atom_site_label
  _atom_site_symmetry_multiplicity
  _atom_site_fract_x
  _atom_site_fract_y
  _atom_site_fract_z
  _atom_site_occupancy
  Nd  Nd1       1.0  0.4999999999999999  0.0125225  0.9749549999999997  1.0000
  Nd  Nd2       1.0  0.49999999999999983  0.5125225  0.9749549999999997  1.0000
  Nd  Nd3       1.0  0.9999999999999997  0.0125225  0.9749549999999997  1.0000
  Nd  Nd4       1.0  0.9999999999999998  0.5125225  0.9749549999999997  1.0000
  Rh  Rh1       1.0  0.24999999999999994  0.324626  0.350748  1.0000
  Rh  Rh2       1.0  0.24999999999999994  0.8246260000000001  0.35074800000000006  1.0000
  Rh  Rh3       1.0  0.75  0.324626  0.350748  1.0000
  Rh  Rh4       1.0  0.75  0.8246260000000001  0.35074800000000006  1.0000
  C   C1        1.0  0.24999999999999994  0.0980975  0.518493  1.0000
  C   C2        1.0  0.24999999999999994  0.5980975000000001  0.518493  1.0000
  C   C3        1.0  0.75  0.0980975  0.518493  1.0000
  C   C4        1.0  0.75  0.5980975000000001  0.518493  1.0000
  C   C5        1.0  0.24999999999999997  0.2407535  0.803805  1.0000
  Si  Si1       1.0  0.24999999999999997  0.7407535  0.8038050000000001  1.0000
  C   C6        1.0  0.75  0.2407535  0.803805  1.0000
  C   C7        1.0  0.75  0.7407535  0.8038050000000001  1.0000
