data_image0
_chemical_formula_structural       NbTa3Sb12
_chemical_formula_sum              "Nb1 Ta3 Sb12"
_cell_length_a       10.19623936
_cell_length_b       10.19623936
_cell_length_c       5.09811968
_cell_angle_alpha    60.00000000000001
_cell_angle_beta     60.00000000000001
_cell_angle_gamma    60.00000000000001

_space_group_name_H-M_alt    "P 1"
_space_group_IT_number       1

loop_
  _space_group_symop_operation_xyz
  'x, y, z'

loop_
  _atom_site_type_symbol
  _atom_site_label
  _atom_site_symmetry_multiplicity
  _atom_site_fract_x
  _atom_site_fract_y
  _atom_site_fract_z
  _atom_site_occupancy
  Nb  Nb1       1.0  0.0  0.0  0.0  1.0000
  Ta  Ta1       1.0  0.0  0.5  0.0  1.0000
  Ta  Ta2       1.0  0.5  1.2573019120019065e-17  0.0  1.0000
  Ta  Ta3       1.0  0.5  0.5  0.0  1.0000
  Sb  Sb1       1.0  0.37500000000000006  0.37499999999999994  0.7499999999999997  1.0000
  Sb  Sb2       1.0  0.3749999999999999  0.8750000000000001  0.7499999999999997  1.0000
  Sb  Sb3       1.0  0.8749999999999998  0.37500000000000017  0.7499999999999996  1.0000
  Sb  Sb4       1.0  0.8750000000000001  0.8749999999999999  0.7499999999999998  1.0000
  Sb  Sb5       1.0  0.12500000000000003  0.12499999999999992  0.24999999999999956  1.0000
  Sb  Sb6       1.0  0.1250000000000001  0.6249999999999999  0.24999999999999967  1.0000
  Sb  Sb7       1.0  0.625  0.12499999999999996  0.24999999999999956  1.0000
  Sb  Sb8       1.0  0.6249999999999998  0.6250000000000002  0.24999999999999944  1.0000
  Sb  Sb9       1.0  0.25  0.25  0.4999999999999995  1.0000
  Sb  Sb10      1.0  0.2499999999999999  0.7500000000000001  0.49999999999999983  1.0000
  Sb  Sb11      1.0  0.75  0.25  0.49999999999999983  1.0000
  Sb  Sb12      1.0  0.75  0.7500000000000002  0.4999999999999997  1.0000
