data_image0
_chemical_formula_structural       Np4Pd2PtPd9
_chemical_formula_sum              "Np4 Pd11 Pt1"
_cell_length_a       8.277704
_cell_length_b       8.277704
_cell_length_c       4.138852
_cell_angle_alpha    90.0
_cell_angle_beta     90.0
_cell_angle_gamma    90.0

_space_group_name_H-M_alt    "P 1"
_space_group_IT_number       1

loop_
  _space_group_symop_operation_xyz
  'x, y, z'

loop_
  _atom_site_type_symbol
  _atom_site_label
  _atom_site_symmetry_multiplicity
  _atom_site_fract_x
  _atom_site_fract_y
  _atom_site_fract_z
  _atom_site_occupancy
  Np  Np1       1.0  0.0  0.0  0.0  1.0000
  Np  Np2       1.0  0.0  0.5  0.0  1.0000
  Np  Np3       1.0  0.5  0.0  0.0  1.0000
  Np  Np4       1.0  0.5  0.5  0.0  1.0000
  Pd  Pd1       1.0  0.25  0.0  0.49999999999999994  1.0000
  Pd  Pd2       1.0  0.24999999999999997  0.5  0.5  1.0000
  Pt  Pt1       1.0  0.75  0.0  0.5  1.0000
  Pd  Pd3       1.0  0.75  0.5  0.49999999999999994  1.0000
  Pd  Pd4       1.0  0.0  0.25  0.49999999999999994  1.0000
  Pd  Pd5       1.0  0.0  0.75  0.5  1.0000
  Pd  Pd6       1.0  0.49999999999999994  0.25  0.5  1.0000
  Pd  Pd7       1.0  0.5  0.75  0.49999999999999994  1.0000
  Pd  Pd8       1.0  0.25  0.25  0.0  1.0000
  Pd  Pd9       1.0  0.25  0.75  0.0  1.0000
  Pd  Pd10      1.0  0.75  0.25  0.0  1.0000
  Pd  Pd11      1.0  0.7500000000000001  0.75  0.0  1.0000
