data_image0
_chemical_formula_structural       Ti4Al3TlV8
_chemical_formula_sum              "Ti4 Al3 Tl1 V8"
_cell_length_a       5.3873594
_cell_length_b       5.3873594
_cell_length_c       8.595073
_cell_angle_alpha    90.00000000000001
_cell_angle_beta     90.00000000000001
_cell_angle_gamma    107.16788386000002

_space_group_name_H-M_alt    "P 1"
_space_group_IT_number       1

loop_
  _space_group_symop_operation_xyz
  'x, y, z'

loop_
  _atom_site_type_symbol
  _atom_site_label
  _atom_site_symmetry_multiplicity
  _atom_site_fract_x
  _atom_site_fract_y
  _atom_site_fract_z
  _atom_site_occupancy
  Ti  Ti1       1.0  0.25  0.24999999999999997  0.26097099999999995  1.0000
  Ti  Ti2       1.0  0.25  0.7499999999999999  0.260971  1.0000
  Ti  Ti3       1.0  0.75  0.24999999999999997  0.260971  1.0000
  Ti  Ti4       1.0  0.75  0.7499999999999999  0.26097099999999995  1.0000
  Al  Al1       1.0  0.0  0.0  0.989361  1.0000
  Al  Al2       1.0  0.0  0.4999999999999999  0.989361  1.0000
  Al  Al3       1.0  0.5  0.0  0.989361  1.0000
  Tl  Tl1       1.0  0.5  0.49999999999999994  0.989361  1.0000
  V   V1        1.0  0.0  0.0  0.5092800000000001  1.0000
  V   V2        1.0  0.0  0.4999999999999999  0.5092800000000001  1.0000
  V   V3        1.0  0.5  0.0  0.5092800000000001  1.0000
  V   V4        1.0  0.5  0.49999999999999994  0.5092800000000001  1.0000
  V   V5        1.0  0.25  0.24999999999999997  0.740388  1.0000
  V   V6        1.0  0.25  0.7499999999999999  0.740388  1.0000
  V   V7        1.0  0.75  0.24999999999999997  0.740388  1.0000
  V   V8        1.0  0.75  0.7499999999999999  0.7403880000000002  1.0000
