data_image0
_chemical_formula_structural       Li4Pm4Zn3HgZn4
_chemical_formula_sum              "Li4 Pm4 Zn7 Hg1"
_cell_length_a       9.73142132
_cell_length_b       9.731421319999999
_cell_length_c       4.8657106599999995
_cell_angle_alpha    59.99999999999999
_cell_angle_beta     60.00000000000001
_cell_angle_gamma    60.00000000000001

_space_group_name_H-M_alt    "P 1"
_space_group_IT_number       1

loop_
  _space_group_symop_operation_xyz
  'x, y, z'

loop_
  _atom_site_type_symbol
  _atom_site_label
  _atom_site_symmetry_multiplicity
  _atom_site_fract_x
  _atom_site_fract_y
  _atom_site_fract_z
  _atom_site_occupancy
  Li  Li1       1.0  0.25000000000000017  0.24999999999999986  0.4999999999999999  1.0000
  Li  Li2       1.0  0.2500000000000001  0.7499999999999999  0.4999999999999999  1.0000
  Li  Li3       1.0  0.7500000000000001  0.24999999999999986  0.4999999999999999  1.0000
  Li  Li4       1.0  0.7500000000000001  0.7500000000000001  0.49999999999999967  1.0000
  Pm  Pm1       1.0  0.0  0.0  0.0  1.0000
  Pm  Pm2       1.0  0.0  0.5  0.0  1.0000
  Pm  Pm3       1.0  0.49999999999999994  0.0  0.0  1.0000
  Pm  Pm4       1.0  0.49999999999999994  0.5  0.0  1.0000
  Zn  Zn1       1.0  0.12500000000000003  0.12499999999999986  0.25  1.0000
  Zn  Zn2       1.0  0.12499999999999993  0.6249999999999999  0.25000000000000006  1.0000
  Zn  Zn3       1.0  0.6249999999999999  0.12499999999999985  0.24999999999999983  1.0000
  Hg  Hg1       1.0  0.625  0.6249999999999998  0.24999999999999994  1.0000
  Zn  Zn4       1.0  0.37500000000000006  0.37500000000000006  0.7499999999999996  1.0000
  Zn  Zn5       1.0  0.37500000000000006  0.8750000000000001  0.7499999999999997  1.0000
  Zn  Zn6       1.0  0.8750000000000004  0.37500000000000006  0.7499999999999998  1.0000
  Zn  Zn7       1.0  0.8749999999999999  0.8749999999999999  0.7499999999999997  1.0000
