data_image0
_chemical_formula_structural       Li8BaCa3Si4
_chemical_formula_sum              "Li8 Ba1 Ca3 Si4"
_cell_length_a       9.28727906
_cell_length_b       9.28727906
_cell_length_c       4.64363953
_cell_angle_alpha    60.00000000000001
_cell_angle_beta     60.00000000000001
_cell_angle_gamma    60.00000000000001

_space_group_name_H-M_alt    "P 1"
_space_group_IT_number       1

loop_
  _space_group_symop_operation_xyz
  'x, y, z'

loop_
  _atom_site_type_symbol
  _atom_site_label
  _atom_site_symmetry_multiplicity
  _atom_site_fract_x
  _atom_site_fract_y
  _atom_site_fract_z
  _atom_site_occupancy
  Li  Li1       1.0  0.37500000000000017  0.37500000000000006  0.7500000000000001  1.0000
  Li  Li2       1.0  0.3750000000000004  0.875  0.75  1.0000
  Li  Li3       1.0  0.8750000000000003  0.375  0.75  1.0000
  Li  Li4       1.0  0.8750000000000003  0.875  0.7499999999999999  1.0000
  Li  Li5       1.0  0.12500000000000006  0.12499999999999986  0.25  1.0000
  Li  Li6       1.0  0.12500000000000006  0.6250000000000001  0.2500000000000002  1.0000
  Li  Li7       1.0  0.625  0.12499999999999992  0.2500000000000001  1.0000
  Li  Li8       1.0  0.6250000000000001  0.6249999999999999  0.2500000000000001  1.0000
  Ba  Ba1       1.0  0.2500000000000001  0.25  0.5  1.0000
  Ca  Ca1       1.0  0.2500000000000001  0.7500000000000001  0.5000000000000002  1.0000
  Ca  Ca2       1.0  0.7500000000000001  0.2500000000000001  0.5000000000000002  1.0000
  Ca  Ca3       1.0  0.7500000000000001  0.7500000000000001  0.5000000000000002  1.0000
  Si  Si1       1.0  0.0  0.0  0.0  1.0000
  Si  Si2       1.0  0.0  0.5  0.0  1.0000
  Si  Si3       1.0  0.49999999999999994  0.0  0.0  1.0000
  Si  Si4       1.0  0.49999999999999994  0.5  0.0  1.0000
