data_image0
_chemical_formula_structural       Ti5ZrTi2Co4Mo4
_chemical_formula_sum              "Ti7 Zr1 Co4 Mo4"
_cell_length_a       16.81703199965545
_cell_length_b       21.2007402
_cell_length_c       10.600370098580166
_cell_angle_alpha    62.45374441465263
_cell_angle_beta     66.63331025222347
_cell_angle_gamma    66.63331024499999

_space_group_name_H-M_alt    "P 1"
_space_group_IT_number       1

loop_
  _space_group_symop_operation_xyz
  'x, y, z'

loop_
  _atom_site_type_symbol
  _atom_site_label
  _atom_site_symmetry_multiplicity
  _atom_site_fract_x
  _atom_site_fract_y
  _atom_site_fract_z
  _atom_site_occupancy
  Ti  Ti1       1.0  0.37821050000000017  0.0  0.0  1.0000
  Ti  Ti2       1.0  0.37821050000000017  0.5  0.0  1.0000
  Ti  Ti3       1.0  0.8782105000000001  0.9999999999999999  0.0  1.0000
  Ti  Ti4       1.0  0.8782105000000003  0.4999999999999999  1.8900050156295714e-16  1.0000
  Ti  Ti5       1.0  0.12178950000000005  0.0  0.0  1.0000
  Zr  Zr1       1.0  0.12178950000000018  0.5  0.0  1.0000
  Ti  Ti6       1.0  0.6217895000000001  1.0925754164807455e-17  0.0  1.0000
  Ti  Ti7       1.0  0.6217895000000001  0.5  9.450025078147857e-17  1.0000
  Co  Co1       1.0  0.0  0.0  0.0  1.0000
  Co  Co2       1.0  5.961414312538886e-17  0.5  0.0  1.0000
  Co  Co3       1.0  0.5000000000000001  0.0  0.0  1.0000
  Co  Co4       1.0  0.5000000000000002  0.49999999999999994  9.450025078147857e-17  1.0000
  Mo  Mo1       1.0  0.25  0.0  0.0  1.0000
  Mo  Mo2       1.0  0.25  0.49999999999999994  0.0  1.0000
  Mo  Mo3       1.0  0.7499999999999999  0.0  9.450025078147857e-17  1.0000
  Mo  Mo4       1.0  0.7499999999999999  0.4999999999999999  0.0  1.0000
