data_image0
_chemical_formula_structural       Eu4Tl4BTl7
_chemical_formula_sum              "Eu4 Tl11 B1"
_cell_length_a       9.897396
_cell_length_b       9.897396
_cell_length_c       4.948698
_cell_angle_alpha    90.0
_cell_angle_beta     90.0
_cell_angle_gamma    90.0

_space_group_name_H-M_alt    "P 1"
_space_group_IT_number       1

loop_
  _space_group_symop_operation_xyz
  'x, y, z'

loop_
  _atom_site_type_symbol
  _atom_site_label
  _atom_site_symmetry_multiplicity
  _atom_site_fract_x
  _atom_site_fract_y
  _atom_site_fract_z
  _atom_site_occupancy
  Eu  Eu1       1.0  0.0  0.0  0.0  1.0000
  Eu  Eu2       1.0  0.0  0.5  0.0  1.0000
  Eu  Eu3       1.0  0.5  0.0  0.0  1.0000
  Eu  Eu4       1.0  0.5  0.5  0.0  1.0000
  Tl  Tl1       1.0  0.25  0.25  0.0  1.0000
  Tl  Tl2       1.0  0.25  0.75  0.0  1.0000
  Tl  Tl3       1.0  0.75  0.25  0.0  1.0000
  Tl  Tl4       1.0  0.7500000000000001  0.75  3.985194212806135e-32  1.0000
  B   B1        1.0  0.25  0.0  0.4999999999999999  1.0000
  Tl  Tl5       1.0  0.25000000000000006  0.5  0.5  1.0000
  Tl  Tl6       1.0  0.75  0.0  0.5  1.0000
  Tl  Tl7       1.0  0.75  0.5  0.4999999999999999  1.0000
  Tl  Tl8       1.0  0.0  0.25  0.4999999999999999  1.0000
  Tl  Tl9       1.0  0.0  0.75  0.5  1.0000
  Tl  Tl10      1.0  0.4999999999999999  0.25  0.5  1.0000
  Tl  Tl11      1.0  0.5  0.75  0.4999999999999999  1.0000
