data_image0
_chemical_formula_structural       Mg4Sn2SiSn
_chemical_formula_sum              "Mg4 Sn3 Si1"
_cell_length_a       8.47622192
_cell_length_b       8.476221919999999
_cell_length_c       4.238110959999999
_cell_angle_alpha    59.999999999999986
_cell_angle_beta     59.99999999999999
_cell_angle_gamma    60.00000000000001

_space_group_name_H-M_alt    "P 1"
_space_group_IT_number       1

loop_
  _space_group_symop_operation_xyz
  'x, y, z'

loop_
  _atom_site_type_symbol
  _atom_site_label
  _atom_site_symmetry_multiplicity
  _atom_site_fract_x
  _atom_site_fract_y
  _atom_site_fract_z
  _atom_site_occupancy
  Mg  Mg1       1.0  0.0  0.0  0.0  1.0000
  Mg  Mg2       1.0  0.0  0.5  0.0  1.0000
  Mg  Mg3       1.0  0.5  0.0  0.0  1.0000
  Mg  Mg4       1.0  0.5  0.5  0.0  1.0000
  Sn  Sn1       1.0  0.24999999999999997  0.2500000000000001  0.5000000000000001  1.0000
  Sn  Sn2       1.0  0.24999999999999997  0.7500000000000002  0.5000000000000001  1.0000
  Si  Si1       1.0  0.75  0.2500000000000001  0.5000000000000001  1.0000
  Sn  Sn3       1.0  0.75  0.75  0.5000000000000001  1.0000
