data_image0
_chemical_formula_structural       Li4InGaIn2Ag8
_chemical_formula_sum              "Li4 In3 Ga1 Ag8"
_cell_length_a       9.41758752
_cell_length_b       9.417587519999998
_cell_length_c       4.708793759999999
_cell_angle_alpha    59.99999999999999
_cell_angle_beta     60.00000000000001
_cell_angle_gamma    60.00000000000001

_space_group_name_H-M_alt    "P 1"
_space_group_IT_number       1

loop_
  _space_group_symop_operation_xyz
  'x, y, z'

loop_
  _atom_site_type_symbol
  _atom_site_label
  _atom_site_symmetry_multiplicity
  _atom_site_fract_x
  _atom_site_fract_y
  _atom_site_fract_z
  _atom_site_occupancy
  Li  Li1       1.0  0.2500000000000001  0.24999999999999994  0.5000000000000001  1.0000
  Li  Li2       1.0  0.25000000000000006  0.75  0.5  1.0000
  Li  Li3       1.0  0.75  0.2499999999999998  0.5  1.0000
  Li  Li4       1.0  0.75  0.7499999999999998  0.5000000000000001  1.0000
  In  In1       1.0  0.0  0.0  0.0  1.0000
  Ga  Ga1       1.0  0.0  0.5  0.0  1.0000
  In  In2       1.0  0.5  0.0  5.445025582329643e-17  1.0000
  In  In3       1.0  0.5  0.5  0.0  1.0000
  Ag  Ag1       1.0  0.12499999999999996  0.12500000000000003  0.2500000000000001  1.0000
  Ag  Ag2       1.0  0.12499999999999997  0.625  0.24999999999999994  1.0000
  Ag  Ag3       1.0  0.625  0.12500000000000003  0.25000000000000006  1.0000
  Ag  Ag4       1.0  0.6250000000000001  0.6250000000000002  0.2500000000000002  1.0000
  Ag  Ag5       1.0  0.37500000000000006  0.37499999999999994  0.75  1.0000
  Ag  Ag6       1.0  0.3749999999999998  0.875  0.7499999999999998  1.0000
  Ag  Ag7       1.0  0.8749999999999999  0.37499999999999994  0.7500000000000002  1.0000
  Ag  Ag8       1.0  0.8749999999999998  0.8749999999999997  0.7499999999999999  1.0000
