data_image0
_chemical_formula_structural       Mg4Zn2CdZn5Rh4
_chemical_formula_sum              "Mg4 Zn7 Cd1 Rh4"
_cell_length_a       8.78377944
_cell_length_b       8.78377944
_cell_length_c       4.39188972
_cell_angle_alpha    60.00000000000001
_cell_angle_beta     60.00000000000001
_cell_angle_gamma    60.00000000000001

_space_group_name_H-M_alt    "P 1"
_space_group_IT_number       1

loop_
  _space_group_symop_operation_xyz
  'x, y, z'

loop_
  _atom_site_type_symbol
  _atom_site_label
  _atom_site_symmetry_multiplicity
  _atom_site_fract_x
  _atom_site_fract_y
  _atom_site_fract_z
  _atom_site_occupancy
  Mg  Mg1       1.0  0.24999999999999997  0.25  0.49999999999999994  1.0000
  Mg  Mg2       1.0  0.24999999999999997  0.75  0.4999999999999999  1.0000
  Mg  Mg3       1.0  0.75  0.24999999999999986  0.5  1.0000
  Mg  Mg4       1.0  0.7499999999999999  0.75  0.49999999999999994  1.0000
  Zn  Zn1       1.0  0.375  0.37499999999999994  0.7499999999999999  1.0000
  Zn  Zn2       1.0  0.3750000000000002  0.8749999999999998  0.7499999999999997  1.0000
  Cd  Cd1       1.0  0.8750000000000001  0.3749999999999998  0.7499999999999997  1.0000
  Zn  Zn3       1.0  0.8750000000000001  0.875  0.7499999999999999  1.0000
  Zn  Zn4       1.0  0.12499999999999999  0.125  0.24999999999999975  1.0000
  Zn  Zn5       1.0  0.12499999999999999  0.625  0.24999999999999975  1.0000
  Zn  Zn6       1.0  0.6250000000000001  0.1249999999999999  0.24999999999999986  1.0000
  Zn  Zn7       1.0  0.6250000000000001  0.6249999999999999  0.2499999999999996  1.0000
  Rh  Rh1       1.0  0.0  0.0  0.0  1.0000
  Rh  Rh2       1.0  0.0  0.5  0.0  1.0000
  Rh  Rh3       1.0  0.5  0.0  0.0  1.0000
  Rh  Rh4       1.0  0.5000000000000001  0.4999999999999999  0.0  1.0000
