data_image0
_chemical_formula_structural       Ga6InGa5Ag4
_chemical_formula_sum              "Ga11 In1 Ag4"
_cell_length_a       9.48771272
_cell_length_b       9.48771272
_cell_length_c       4.74385636
_cell_angle_alpha    60.00000000000001
_cell_angle_beta     60.00000000000001
_cell_angle_gamma    60.00000000000001

_space_group_name_H-M_alt    "P 1"
_space_group_IT_number       1

loop_
  _space_group_symop_operation_xyz
  'x, y, z'

loop_
  _atom_site_type_symbol
  _atom_site_label
  _atom_site_symmetry_multiplicity
  _atom_site_fract_x
  _atom_site_fract_y
  _atom_site_fract_z
  _atom_site_occupancy
  Ga  Ga1       1.0  0.37499999999999994  0.37499999999999983  0.7499999999999997  1.0000
  Ga  Ga2       1.0  0.3749999999999999  0.8749999999999999  0.7499999999999997  1.0000
  Ga  Ga3       1.0  0.8749999999999999  0.37499999999999994  0.7499999999999998  1.0000
  Ga  Ga4       1.0  0.8749999999999999  0.8749999999999999  0.7499999999999994  1.0000
  Ga  Ga5       1.0  0.125  0.12499999999999997  0.24999999999999994  1.0000
  Ga  Ga6       1.0  0.12499999999999989  0.6250000000000001  0.24999999999999972  1.0000
  In  In1       1.0  0.625  0.12500000000000003  0.24999999999999972  1.0000
  Ga  Ga7       1.0  0.625  0.6250000000000002  0.25000000000000017  1.0000
  Ga  Ga8       1.0  0.24999999999999997  0.24999999999999986  0.4999999999999999  1.0000
  Ga  Ga9       1.0  0.2499999999999999  0.75  0.4999999999999998  1.0000
  Ga  Ga10      1.0  0.75  0.24999999999999994  0.4999999999999998  1.0000
  Ga  Ga11      1.0  0.7499999999999998  0.75  0.4999999999999999  1.0000
  Ag  Ag1       1.0  0.0  0.0  0.0  1.0000
  Ag  Ag2       1.0  0.0  0.5  0.0  1.0000
  Ag  Ag3       1.0  0.5  0.0  0.0  1.0000
  Ag  Ag4       1.0  0.5  0.5  0.0  1.0000
