data_image0
_chemical_formula_structural       U4NSb3
_chemical_formula_sum              "U4 N1 Sb3"
_cell_length_a       8.76723314
_cell_length_b       8.76723314
_cell_length_c       4.38361657
_cell_angle_alpha    60.00000000000001
_cell_angle_beta     60.00000000000001
_cell_angle_gamma    60.00000000000001

_space_group_name_H-M_alt    "P 1"
_space_group_IT_number       1

loop_
  _space_group_symop_operation_xyz
  'x, y, z'

loop_
  _atom_site_type_symbol
  _atom_site_label
  _atom_site_symmetry_multiplicity
  _atom_site_fract_x
  _atom_site_fract_y
  _atom_site_fract_z
  _atom_site_occupancy
  U   U1        1.0  0.2500000000000001  0.24999999999999994  0.49999999999999967  1.0000
  U   U2        1.0  0.24999999999999994  0.75  0.4999999999999998  1.0000
  U   U3        1.0  0.75  0.24999999999999992  0.4999999999999998  1.0000
  U   U4        1.0  0.7499999999999999  0.7500000000000001  0.49999999999999967  1.0000
  N   N1        1.0  0.0  0.0  0.0  1.0000
  Sb  Sb1       1.0  0.0  0.5  0.0  1.0000
  Sb  Sb2       1.0  0.5  0.0  0.0  1.0000
  Sb  Sb3       1.0  0.5  0.5  0.0  1.0000
