data_image0
_chemical_formula_structural       Ba8Tl4Hg2ZnHg
_chemical_formula_sum              "Ba8 Tl4 Hg3 Zn1"
_cell_length_a       12.04476074
_cell_length_b       12.044760739999997
_cell_length_c       6.022380369999999
_cell_angle_alpha    60.00000000000001
_cell_angle_beta     60.00000000000001
_cell_angle_gamma    60.00000000000001

_space_group_name_H-M_alt    "P 1"
_space_group_IT_number       1

loop_
  _space_group_symop_operation_xyz
  'x, y, z'

loop_
  _atom_site_type_symbol
  _atom_site_label
  _atom_site_symmetry_multiplicity
  _atom_site_fract_x
  _atom_site_fract_y
  _atom_site_fract_z
  _atom_site_occupancy
  Ba  Ba1       1.0  0.12499999999999996  0.1249999999999999  0.25000000000000017  1.0000
  Ba  Ba2       1.0  0.12499999999999993  0.6249999999999998  0.25000000000000006  1.0000
  Ba  Ba3       1.0  0.625  0.12499999999999979  0.25000000000000017  1.0000
  Ba  Ba4       1.0  0.625  0.625  0.25000000000000033  1.0000
  Ba  Ba5       1.0  0.3750000000000001  0.37499999999999994  0.7500000000000001  1.0000
  Ba  Ba6       1.0  0.37499999999999994  0.875  0.7500000000000004  1.0000
  Ba  Ba7       1.0  0.8749999999999999  0.3750000000000001  0.7500000000000002  1.0000
  Ba  Ba8       1.0  0.8750000000000002  0.8750000000000003  0.7500000000000004  1.0000
  Tl  Tl1       1.0  0.0  0.0  0.0  1.0000
  Tl  Tl2       1.0  0.0  0.5  0.0  1.0000
  Tl  Tl3       1.0  0.5  0.0  0.0  1.0000
  Tl  Tl4       1.0  0.4999999999999999  0.5000000000000001  0.9999999999999999  1.0000
  Hg  Hg1       1.0  0.2500000000000001  0.24999999999999983  0.5000000000000001  1.0000
  Hg  Hg2       1.0  0.24999999999999986  0.75  0.5  1.0000
  Zn  Zn1       1.0  0.7500000000000001  0.24999999999999992  0.5000000000000001  1.0000
  Hg  Hg3       1.0  0.7499999999999998  0.7499999999999998  0.4999999999999997  1.0000
