data_image0
_chemical_formula_structural       Ce4Ag2AuAg
_chemical_formula_sum              "Ce4 Ag3 Au1"
_cell_length_a       6.406044
_cell_length_b       6.406044
_cell_length_c       4.638803
_cell_angle_alpha    90.0
_cell_angle_beta     90.0
_cell_angle_gamma    90.0

_space_group_name_H-M_alt    "P 1"
_space_group_IT_number       1

loop_
  _space_group_symop_operation_xyz
  'x, y, z'

loop_
  _atom_site_type_symbol
  _atom_site_label
  _atom_site_symmetry_multiplicity
  _atom_site_fract_x
  _atom_site_fract_y
  _atom_site_fract_z
  _atom_site_occupancy
  Ce  Ce1       1.0  0.24999999999999994  0.25  0.4999999999999999  1.0000
  Ce  Ce2       1.0  0.25  0.7499999999999999  0.4999999999999999  1.0000
  Ce  Ce3       1.0  0.7499999999999999  0.25  0.4999999999999999  1.0000
  Ce  Ce4       1.0  0.7499999999999999  0.7499999999999999  0.5  1.0000
  Ag  Ag1       1.0  0.0  0.0  0.0  1.0000
  Ag  Ag2       1.0  0.0  0.5  5.314281138508494e-33  1.0000
  Au  Au1       1.0  0.5  0.0  5.314281138508494e-33  1.0000
  Ag  Ag3       1.0  0.4999999999999999  0.5  1.0628562277016988e-32  1.0000
