data_image0
_chemical_formula_structural       Li4CsLi3Ag4Ge4
_chemical_formula_sum              "Li7 Cs1 Ag4 Ge4"
_cell_length_a       8.8603591
_cell_length_b       8.8603591
_cell_length_c       4.43017955
_cell_angle_alpha    60.00000000000001
_cell_angle_beta     60.00000000000001
_cell_angle_gamma    60.00000000000001

_space_group_name_H-M_alt    "P 1"
_space_group_IT_number       1

loop_
  _space_group_symop_operation_xyz
  'x, y, z'

loop_
  _atom_site_type_symbol
  _atom_site_label
  _atom_site_symmetry_multiplicity
  _atom_site_fract_x
  _atom_site_fract_y
  _atom_site_fract_z
  _atom_site_occupancy
  Li  Li1       1.0  0.12500000000000003  0.1250000000000002  0.24999999999999994  1.0000
  Li  Li2       1.0  0.1250000000000002  0.6250000000000001  0.2499999999999999  1.0000
  Li  Li3       1.0  0.625  0.1250000000000001  0.2499999999999999  1.0000
  Li  Li4       1.0  0.6250000000000002  0.6250000000000001  0.25  1.0000
  Cs  Cs1       1.0  0.3750000000000001  0.37500000000000017  0.75  1.0000
  Li  Li5       1.0  0.3750000000000001  0.8750000000000002  0.7500000000000001  1.0000
  Li  Li6       1.0  0.8750000000000001  0.37500000000000006  0.75  1.0000
  Li  Li7       1.0  0.8749999999999999  0.8750000000000002  0.75  1.0000
  Ag  Ag1       1.0  0.2500000000000001  0.25000000000000017  0.5  1.0000
  Ag  Ag2       1.0  0.24999999999999992  0.7500000000000003  0.49999999999999994  1.0000
  Ag  Ag3       1.0  0.75  0.2500000000000002  0.49999999999999994  1.0000
  Ag  Ag4       1.0  0.7500000000000001  0.7499999999999999  0.4999999999999998  1.0000
  Ge  Ge1       1.0  0.0  0.0  0.0  1.0000
  Ge  Ge2       1.0  0.0  0.5  0.0  1.0000
  Ge  Ge3       1.0  0.5  0.0  0.0  1.0000
  Ge  Ge4       1.0  0.5000000000000001  0.4999999999999999  0.0  1.0000
