data_image0
_chemical_formula_structural       Nb11TaCr4
_chemical_formula_sum              "Nb11 Ta1 Cr4"
_cell_length_a       7.586744004103836
_cell_length_b       7.586744004103837
_cell_length_c       5.472696490000001
_cell_angle_alpha    110.27781545
_cell_angle_beta     110.27781544584985
_cell_angle_gamma    90.00000000561634

_space_group_name_H-M_alt    "P 1"
_space_group_IT_number       1

loop_
  _space_group_symop_operation_xyz
  'x, y, z'

loop_
  _atom_site_type_symbol
  _atom_site_label
  _atom_site_symmetry_multiplicity
  _atom_site_fract_x
  _atom_site_fract_y
  _atom_site_fract_z
  _atom_site_occupancy
  Nb  Nb1       1.0  0.24999999999999986  0.24999999999999992  1.837863016179822e-18  1.0000
  Nb  Nb2       1.0  0.24999999999999992  0.75  0.0  1.0000
  Nb  Nb3       1.0  0.7499999999999999  0.24999999999999994  4.057316266867036e-17  1.0000
  Nb  Nb4       1.0  0.7499999999999998  0.75  0.0  1.0000
  Nb  Nb5       1.0  0.37499999999999983  0.12499999999999993  0.4999999999999997  1.0000
  Nb  Nb6       1.0  0.3749999999999999  0.6249999999999998  0.4999999999999998  1.0000
  Nb  Nb7       1.0  0.8749999999999998  0.12499999999999993  0.4999999999999997  1.0000
  Nb  Nb8       1.0  0.8749999999999998  0.6249999999999998  0.4999999999999997  1.0000
  Nb  Nb9       1.0  0.12499999999999996  0.375  0.4999999999999999  1.0000
  Nb  Nb10      1.0  0.125  0.8749999999999998  0.49999999999999994  1.0000
  Nb  Nb11      1.0  0.6249999999999999  0.3749999999999999  0.4999999999999997  1.0000
  Ta  Ta1       1.0  0.6249999999999999  0.8749999999999998  0.49999999999999994  1.0000
  Cr  Cr1       1.0  0.0  0.0  0.0  1.0000
  Cr  Cr2       1.0  7.800298567474678e-18  0.4999999999999999  4.057316266867036e-17  1.0000
  Cr  Cr3       1.0  0.4999999999999999  0.0  0.0  1.0000
  Cr  Cr4       1.0  0.49999999999999983  0.49999999999999983  4.4248888701030006e-17  1.0000
