data_image0
_chemical_formula_structural       Ge2PbGe9Au4
_chemical_formula_sum              "Ge11 Pb1 Au4"
_cell_length_a       8.329780005107418
_cell_length_b       8.329780005107418
_cell_length_c       5.39460513
_cell_angle_alpha    112.70730256000002
_cell_angle_beta     112.70730255669424
_cell_angle_gamma    90.00000000394994

_space_group_name_H-M_alt    "P 1"
_space_group_IT_number       1

loop_
  _space_group_symop_operation_xyz
  'x, y, z'

loop_
  _atom_site_type_symbol
  _atom_site_label
  _atom_site_symmetry_multiplicity
  _atom_site_fract_x
  _atom_site_fract_y
  _atom_site_fract_z
  _atom_site_occupancy
  Ge  Ge1       1.0  0.3750000000000001  0.125  0.5  1.0000
  Ge  Ge2       1.0  0.3750000000000001  0.625  0.5000000000000001  1.0000
  Pb  Pb1       1.0  0.8750000000000003  0.1250000000000001  0.5000000000000002  1.0000
  Ge  Ge3       1.0  0.8750000000000002  0.6250000000000001  0.5000000000000002  1.0000
  Ge  Ge4       1.0  0.125  0.37499999999999994  0.5  1.0000
  Ge  Ge5       1.0  0.125  0.875  0.5  1.0000
  Ge  Ge6       1.0  0.6250000000000001  0.3750000000000001  0.5000000000000002  1.0000
  Ge  Ge7       1.0  0.6250000000000002  0.875  0.5000000000000001  1.0000
  Ge  Ge8       1.0  0.25  0.25  4.9098094315893885e-17  1.0000
  Ge  Ge9       1.0  0.25  0.7499999999999999  4.116049267261778e-17  1.0000
  Ge  Ge10      1.0  0.7500000000000001  0.25000000000000006  1.6464197069047113e-16  1.0000
  Ge  Ge11      1.0  0.75  0.7499999999999999  2.70800797427468e-17  1.0000
  Au  Au1       1.0  0.0  0.0  0.0  1.0000
  Au  Au2       1.0  0.0  0.5  0.0  1.0000
  Au  Au3       1.0  0.5  2.0580246336308888e-17  4.116049267261778e-17  1.0000
  Au  Au4       1.0  0.5  0.5  9.819618863178777e-17  1.0000
