data_image0
_chemical_formula_structural       Hf8Cu4Re2TcRe
_chemical_formula_sum              "Hf8 Cu4 Re3 Tc1"
_cell_length_a       9.23246132
_cell_length_b       9.232461319999999
_cell_length_c       4.616230659999999
_cell_angle_alpha    59.99999999999999
_cell_angle_beta     60.00000000000001
_cell_angle_gamma    60.00000000000001

_space_group_name_H-M_alt    "P 1"
_space_group_IT_number       1

loop_
  _space_group_symop_operation_xyz
  'x, y, z'

loop_
  _atom_site_type_symbol
  _atom_site_label
  _atom_site_symmetry_multiplicity
  _atom_site_fract_x
  _atom_site_fract_y
  _atom_site_fract_z
  _atom_site_occupancy
  Hf  Hf1       1.0  0.3750000000000001  0.375  0.75  1.0000
  Hf  Hf2       1.0  0.37500000000000033  0.8749999999999998  0.7500000000000001  1.0000
  Hf  Hf3       1.0  0.8750000000000001  0.3749999999999999  0.7500000000000001  1.0000
  Hf  Hf4       1.0  0.8750000000000001  0.875  0.75  1.0000
  Hf  Hf5       1.0  0.12500000000000025  0.12499999999999988  0.2499999999999999  1.0000
  Hf  Hf6       1.0  0.1250000000000002  0.6249999999999999  0.25  1.0000
  Hf  Hf7       1.0  0.6250000000000002  0.12499999999999988  0.2499999999999999  1.0000
  Hf  Hf8       1.0  0.6250000000000004  0.6249999999999999  0.25  1.0000
  Cu  Cu1       1.0  0.2500000000000002  0.24999999999999983  0.5000000000000001  1.0000
  Cu  Cu2       1.0  0.2500000000000004  0.7499999999999998  0.5  1.0000
  Cu  Cu3       1.0  0.7500000000000002  0.2499999999999999  0.5  1.0000
  Cu  Cu4       1.0  0.7500000000000001  0.7500000000000001  0.5000000000000002  1.0000
  Re  Re1       1.0  0.0  0.0  0.0  1.0000
  Re  Re2       1.0  0.0  0.5  0.0  1.0000
  Tc  Tc1       1.0  0.5  0.0  0.0  1.0000
  Re  Re3       1.0  0.5  0.5  0.0  1.0000
