data_image0
_chemical_formula_structural       Mg4Zr3Ti
_chemical_formula_sum              "Mg4 Zr3 Ti1"
_cell_length_a       6.31283
_cell_length_b       6.31283
_cell_length_c       4.460166
_cell_angle_alpha    90.0
_cell_angle_beta     90.0
_cell_angle_gamma    90.0

_space_group_name_H-M_alt    "P 1"
_space_group_IT_number       1

loop_
  _space_group_symop_operation_xyz
  'x, y, z'

loop_
  _atom_site_type_symbol
  _atom_site_label
  _atom_site_symmetry_multiplicity
  _atom_site_fract_x
  _atom_site_fract_y
  _atom_site_fract_z
  _atom_site_occupancy
  Mg  Mg1       1.0  0.0  0.0  0.0  1.0000
  Mg  Mg2       1.0  0.0  0.5  5.527126857645348e-33  1.0000
  Mg  Mg3       1.0  0.5  0.0  0.0  1.0000
  Mg  Mg4       1.0  0.5  0.5  0.0  1.0000
  Zr  Zr1       1.0  0.25  0.25  0.49999999999999994  1.0000
  Zr  Zr2       1.0  0.25  0.7500000000000001  0.49999999999999994  1.0000
  Zr  Zr3       1.0  0.7500000000000001  0.25  0.49999999999999994  1.0000
  Ti  Ti1       1.0  0.7500000000000001  0.7500000000000001  0.5  1.0000
