data_image0
_chemical_formula_structural       Li4CrW3N8
_chemical_formula_sum              "Li4 Cr1 W3 N8"
_cell_length_a       5.92178483705582
_cell_length_b       5.92178483705582
_cell_length_c       5.66731822
_cell_angle_alpha    74.85722712463162
_cell_angle_beta     74.85722712463162
_cell_angle_gamma    59.99999069384769

_space_group_name_H-M_alt    "P 1"
_space_group_IT_number       1

loop_
  _space_group_symop_operation_xyz
  'x, y, z'

loop_
  _atom_site_type_symbol
  _atom_site_label
  _atom_site_symmetry_multiplicity
  _atom_site_fract_x
  _atom_site_fract_y
  _atom_site_fract_z
  _atom_site_occupancy
  Li  Li1       1.0  0.4145475  0.4145475000000001  0.5127150000000001  1.0000
  Li  Li2       1.0  0.4145475  0.9145475000000001  0.512715  1.0000
  Li  Li3       1.0  0.9145475  0.4145475  0.512715  1.0000
  Li  Li4       1.0  0.9145475  0.9145475000000001  0.5127150000000001  1.0000
  Cr  Cr1       1.0  0.0016570000000000003  0.001657000000000001  0.9900580000000001  1.0000
  W   W1        1.0  0.0016570000000000003  0.501657  0.9900580000000001  1.0000
  W   W2        1.0  0.5016569999999999  0.001657000000000066  0.9900580000000001  1.0000
  W   W3        1.0  0.5016569999999999  0.501657  0.9900580000000001  1.0000
  N   N1        1.0  0.298038  0.298038  0.21177199999999963  1.0000
  N   N2        1.0  0.298038  0.7980380000000002  0.2117719999999996  1.0000
  N   N3        1.0  0.798038  0.298038  0.21177199999999963  1.0000
  N   N4        1.0  0.798038  0.798038  0.2117719999999996  1.0000
  N   N5        1.0  0.205758  0.205758  0.7654519999999998  1.0000
  N   N6        1.0  0.205758  0.705758  0.7654519999999998  1.0000
  N   N7        1.0  0.705758  0.20575800000000005  0.7654519999999998  1.0000
  N   N8        1.0  0.705758  0.7057580000000002  0.7654519999999998  1.0000
