data_image0
_chemical_formula_structural       Y4Rh5CoRh2Pb4
_chemical_formula_sum              "Y4 Rh7 Co1 Pb4"
_cell_length_a       19.65125600210647
_cell_length_b       22.477287099999998
_cell_length_c       11.238643549326818
_cell_angle_alpha    62.56859374208539
_cell_angle_beta     64.07872060769655
_cell_angle_gamma    64.07872060500002

_space_group_name_H-M_alt    "P 1"
_space_group_IT_number       1

loop_
  _space_group_symop_operation_xyz
  'x, y, z'

loop_
  _atom_site_type_symbol
  _atom_site_label
  _atom_site_symmetry_multiplicity
  _atom_site_fract_x
  _atom_site_fract_y
  _atom_site_fract_z
  _atom_site_occupancy
  Y   Y1        1.0  0.0  0.0  0.0  1.0000
  Y   Y2        1.0  0.0  0.5  0.0  1.0000
  Y   Y3        1.0  0.5  0.0  0.0  1.0000
  Y   Y4        1.0  0.49999999999999994  0.5000000000000001  0.0  1.0000
  Rh  Rh1       1.0  0.3817669999999999  0.5000000000000001  0.0  1.0000
  Rh  Rh2       1.0  0.38176699999999997  3.4387022184206065e-17  2.2260101513964415e-17  1.0000
  Rh  Rh3       1.0  0.8817670000000002  0.5000000000000001  1.7808081211171532e-16  1.0000
  Rh  Rh4       1.0  0.881767  2.76601393675346e-16  0.0  1.0000
  Rh  Rh5       1.0  0.11823299999999991  0.5000000000000001  4.452020302792883e-17  1.0000
  Co  Co1       1.0  0.11823300000000003  9.878621202690928e-18  0.0  1.0000
  Rh  Rh6       1.0  0.6182329999999999  0.5000000000000001  0.9999999999999999  1.0000
  Rh  Rh7       1.0  0.618233  0.0  2.2260101513964413e-16  1.0000
  Pb  Pb1       1.0  0.25  0.5000000000000001  0.0  1.0000
  Pb  Pb2       1.0  0.2500000000000001  2.312068381371759e-16  1.1130050756982207e-16  1.0000
  Pb  Pb3       1.0  0.75  0.5000000000000001  0.0  1.0000
  Pb  Pb4       1.0  0.7499999999999999  2.76601393675346e-16  0.9999999999999998  1.0000
