data_image0
_chemical_formula_structural       La4Tm4O3SeO4
_chemical_formula_sum              "La4 Tm4 O7 Se1"
_cell_length_a       6.871462689409019
_cell_length_b       6.87146268940902
_cell_length_c       6.32598897
_cell_angle_alpha    74.2430637465804
_cell_angle_beta     74.2430637465804
_cell_angle_gamma    60.000012654482255

_space_group_name_H-M_alt    "P 1"
_space_group_IT_number       1

loop_
  _space_group_symop_operation_xyz
  'x, y, z'

loop_
  _atom_site_type_symbol
  _atom_site_label
  _atom_site_symmetry_multiplicity
  _atom_site_fract_x
  _atom_site_fract_y
  _atom_site_fract_z
  _atom_site_occupancy
  La  La1       1.0  0.0  0.0  0.0  1.0000
  La  La2       1.0  0.0  0.5  0.0  1.0000
  La  La3       1.0  0.5  3.357571922119102e-17  0.0  1.0000
  La  La4       1.0  0.5  0.49999999999999994  3.510037813503037e-17  1.0000
  Tm  Tm1       1.0  0.25  0.24999999999999997  0.49999999999999994  1.0000
  Tm  Tm2       1.0  0.25  0.7500000000000002  0.49999999999999994  1.0000
  Tm  Tm3       1.0  0.7500000000000001  0.24999999999999992  0.4999999999999998  1.0000
  Tm  Tm4       1.0  0.7500000000000001  0.7499999999999998  0.5  1.0000
  O   O1        1.0  0.115167  0.11516700000000003  0.308998  1.0000
  O   O2        1.0  0.115167  0.615167  0.308998  1.0000
  O   O3        1.0  0.615167  0.11516700000000003  0.308998  1.0000
  Se  Se1       1.0  0.615167  0.615167  0.30899800000000005  1.0000
  O   O4        1.0  0.384833  0.384833  0.6910020000000001  1.0000
  O   O5        1.0  0.384833  0.8848330000000001  0.6910020000000001  1.0000
  O   O6        1.0  0.8848330000000001  0.384833  0.6910020000000001  1.0000
  O   O7        1.0  0.8848330000000001  0.8848330000000002  0.6910020000000001  1.0000
