data_image0
_chemical_formula_structural       Rb12Zr2HfZr
_chemical_formula_sum              "Rb12 Zr3 Hf1"
_cell_length_a       12.452158
_cell_length_b       12.452158
_cell_length_c       6.226079
_cell_angle_alpha    90.0
_cell_angle_beta     90.0
_cell_angle_gamma    90.0

_space_group_name_H-M_alt    "P 1"
_space_group_IT_number       1

loop_
  _space_group_symop_operation_xyz
  'x, y, z'

loop_
  _atom_site_type_symbol
  _atom_site_label
  _atom_site_symmetry_multiplicity
  _atom_site_fract_x
  _atom_site_fract_y
  _atom_site_fract_z
  _atom_site_occupancy
  Rb  Rb1       1.0  0.0  0.24999999999999994  0.49999999999999983  1.0000
  Rb  Rb2       1.0  0.0  0.75  0.49999999999999983  1.0000
  Rb  Rb3       1.0  0.4999999999999999  0.24999999999999994  0.49999999999999983  1.0000
  Rb  Rb4       1.0  0.49999999999999994  0.75  0.4999999999999999  1.0000
  Rb  Rb5       1.0  0.24999999999999994  0.0  0.49999999999999983  1.0000
  Rb  Rb6       1.0  0.24999999999999994  0.4999999999999999  0.49999999999999983  1.0000
  Rb  Rb7       1.0  0.75  0.0  0.49999999999999983  1.0000
  Rb  Rb8       1.0  0.7499999999999999  0.4999999999999999  0.4999999999999999  1.0000
  Rb  Rb9       1.0  0.24999999999999994  0.24999999999999994  1.5837835201356498e-32  1.0000
  Rb  Rb10      1.0  0.24999999999999997  0.75  3.1675670402712996e-32  1.0000
  Rb  Rb11      1.0  0.75  0.24999999999999994  1.5837835201356498e-32  1.0000
  Rb  Rb12      1.0  0.7499999999999999  0.75  0.0  1.0000
  Zr  Zr1       1.0  0.0  0.0  0.0  1.0000
  Zr  Zr2       1.0  0.0  0.4999999999999999  7.918917600678249e-33  1.0000
  Hf  Hf1       1.0  0.4999999999999999  0.0  1.5837835201356498e-32  1.0000
  Zr  Zr3       1.0  0.4999999999999999  0.4999999999999999  3.1675670402712996e-32  1.0000
