data_image0
_chemical_formula_structural       Tl8InTl3Ag4
_chemical_formula_sum              "Tl11 In1 Ag4"
_cell_length_a       9.39374399554073
_cell_length_b       9.393743995540731
_cell_length_c       6.05003514
_cell_angle_alpha    112.840616175
_cell_angle_beta     112.84061617572893
_cell_angle_gamma    89.9999999991347

_space_group_name_H-M_alt    "P 1"
_space_group_IT_number       1

loop_
  _space_group_symop_operation_xyz
  'x, y, z'

loop_
  _atom_site_type_symbol
  _atom_site_label
  _atom_site_symmetry_multiplicity
  _atom_site_fract_x
  _atom_site_fract_y
  _atom_site_fract_z
  _atom_site_occupancy
  Tl  Tl1       1.0  0.37500000000000006  0.12500000000000006  0.5000000000000002  1.0000
  Tl  Tl2       1.0  0.375  0.6250000000000001  0.5000000000000003  1.0000
  Tl  Tl3       1.0  0.875  0.12499999999999994  0.49999999999999994  1.0000
  Tl  Tl4       1.0  0.8750000000000003  0.6250000000000002  0.5000000000000004  1.0000
  Tl  Tl5       1.0  0.125  0.375  0.5000000000000002  1.0000
  Tl  Tl6       1.0  0.125  0.875  0.5000000000000003  1.0000
  Tl  Tl7       1.0  0.625  0.37500000000000006  0.5000000000000003  1.0000
  Tl  Tl8       1.0  0.6250000000000001  0.875  0.5000000000000003  1.0000
  In  In1       1.0  0.25000000000000006  0.24999999999999997  2.5253973701968267e-16  1.0000
  Tl  Tl9       1.0  0.2500000000000001  0.7500000000000001  3.303123697766294e-16  1.0000
  Tl  Tl10      1.0  0.7500000000000001  0.24999999999999997  2.569096209373784e-16  1.0000
  Tl  Tl11      1.0  0.7500000000000002  0.7500000000000001  3.687717013333781e-16  1.0000
  Ag  Ag1       1.0  0.0  0.0  0.0  1.0000
  Ag  Ag2       1.0  3.8472982186655887e-17  0.49999999999999994  7.340274883925098e-17  1.0000
  Ag  Ag3       1.0  0.5  1.8350687209812744e-17  3.670137441962549e-17  1.0000
  Ag  Ag4       1.0  0.5000000000000001  0.49999999999999994  2.4012007179215793e-17  1.0000
