data_image0
_chemical_formula_structural       Li3NaAl8Rh4
_chemical_formula_sum              "Li3 Na1 Al8 Rh4"
_cell_length_a       8.53948252
_cell_length_b       8.539482519999998
_cell_length_c       4.269741259999999
_cell_angle_alpha    60.00000000000001
_cell_angle_beta     60.00000000000001
_cell_angle_gamma    60.00000000000001

_space_group_name_H-M_alt    "P 1"
_space_group_IT_number       1

loop_
  _space_group_symop_operation_xyz
  'x, y, z'

loop_
  _atom_site_type_symbol
  _atom_site_label
  _atom_site_symmetry_multiplicity
  _atom_site_fract_x
  _atom_site_fract_y
  _atom_site_fract_z
  _atom_site_occupancy
  Li  Li1       1.0  0.0  0.0  0.0  1.0000
  Li  Li2       1.0  0.0  0.5  0.0  1.0000
  Li  Li3       1.0  0.5  0.0  0.0  1.0000
  Na  Na1       1.0  0.5  0.5  0.0  1.0000
  Al  Al1       1.0  0.375  0.375  0.7500000000000001  1.0000
  Al  Al2       1.0  0.37499999999999983  0.8750000000000002  0.7500000000000001  1.0000
  Al  Al3       1.0  0.8750000000000002  0.3750000000000001  0.75  1.0000
  Al  Al4       1.0  0.8749999999999999  0.8750000000000001  0.7499999999999999  1.0000
  Al  Al5       1.0  0.125  0.125  0.2500000000000002  1.0000
  Al  Al6       1.0  0.12500000000000003  0.6250000000000001  0.25000000000000017  1.0000
  Al  Al7       1.0  0.625  0.12500000000000014  0.25000000000000017  1.0000
  Al  Al8       1.0  0.6249999999999999  0.6250000000000001  0.25000000000000017  1.0000
  Rh  Rh1       1.0  0.2499999999999998  0.25000000000000006  0.5000000000000001  1.0000
  Rh  Rh2       1.0  0.2499999999999998  0.7500000000000002  0.5  1.0000
  Rh  Rh3       1.0  0.75  0.25000000000000006  0.5000000000000001  1.0000
  Rh  Rh4       1.0  0.75  0.75  0.5000000000000001  1.0000
