data_image0
_chemical_formula_structural       Er4Pb3CAu4
_chemical_formula_sum              "Er4 Pb3 C1 Au4"
_cell_length_a       9.639850979999999
_cell_length_b       9.639850979999999
_cell_length_c       4.819925489999999
_cell_angle_alpha    60.00000000000001
_cell_angle_beta     60.00000000000001
_cell_angle_gamma    60.00000000000001

_space_group_name_H-M_alt    "P 1"
_space_group_IT_number       1

loop_
  _space_group_symop_operation_xyz
  'x, y, z'

loop_
  _atom_site_type_symbol
  _atom_site_label
  _atom_site_symmetry_multiplicity
  _atom_site_fract_x
  _atom_site_fract_y
  _atom_site_fract_z
  _atom_site_occupancy
  Er  Er1       1.0  0.2500000000000001  0.25  0.49999999999999967  1.0000
  Er  Er2       1.0  0.25000000000000006  0.7500000000000002  0.4999999999999999  1.0000
  Er  Er3       1.0  0.7500000000000001  0.24999999999999997  0.4999999999999998  1.0000
  Er  Er4       1.0  0.7500000000000001  0.7500000000000001  0.49999999999999967  1.0000
  Pb  Pb1       1.0  0.0  0.0  0.0  1.0000
  Pb  Pb2       1.0  0.0  0.5  0.0  1.0000
  Pb  Pb3       1.0  0.5  0.0  0.0  1.0000
  C   C1        1.0  0.4999999999999999  0.5000000000000001  0.9999999999999998  1.0000
  Au  Au1       1.0  0.37499999999999994  0.37500000000000017  0.7499999999999999  1.0000
  Au  Au2       1.0  0.37499999999999994  0.8750000000000002  0.7499999999999999  1.0000
  Au  Au3       1.0  0.8750000000000002  0.3750000000000003  0.7500000000000001  1.0000
  Au  Au4       1.0  0.8750000000000001  0.8750000000000002  0.75  1.0000
