data_image0
_chemical_formula_structural       Na4H4ClF7
_chemical_formula_sum              "Na4 H4 Cl1 F7"
_cell_length_a       6.48843954
_cell_length_b       7.64481268
_cell_length_c       3.82240634
_cell_angle_alpha    96.94847708999998
_cell_angle_beta     96.05859094000002
_cell_angle_gamma    96.05859094000002

_space_group_name_H-M_alt    "P 1"
_space_group_IT_number       1

loop_
  _space_group_symop_operation_xyz
  'x, y, z'

loop_
  _atom_site_type_symbol
  _atom_site_label
  _atom_site_symmetry_multiplicity
  _atom_site_fract_x
  _atom_site_fract_y
  _atom_site_fract_z
  _atom_site_occupancy
  Na  Na1       1.0  0.25000000000000006  0.131376  0.7372479999999996  1.0000
  Na  Na2       1.0  0.25  0.6313759999999999  0.7372479999999997  1.0000
  Na  Na3       1.0  0.75  0.131376  0.7372479999999996  1.0000
  Na  Na4       1.0  0.75  0.6313759999999999  0.7372479999999997  1.0000
  H   H1        1.0  0.0  0.4508415  0.09831699999999995  1.0000
  H   H2        1.0  0.0  0.9508414999999998  0.09831699999999993  1.0000
  H   H3        1.0  0.5  0.4508415  0.09831699999999995  1.0000
  H   H4        1.0  0.5  0.9508414999999998  0.09831699999999993  1.0000
  Cl  Cl1       1.0  0.44531000000000004  0.0615705  0.28347399999999995  1.0000
  F   F1        1.0  0.44531000000000004  0.5615704999999999  0.2834739999999999  1.0000
  F   F2        1.0  0.9453100000000001  0.0615705  0.28347399999999995  1.0000
  F   F3        1.0  0.94531  0.5615704999999999  0.2834739999999999  1.0000
  F   F4        1.0  0.05469000000000001  0.35826299999999994  0.8768589999999997  1.0000
  F   F5        1.0  0.05468999999999999  0.8582629999999998  0.8768589999999997  1.0000
  F   F6        1.0  0.55469  0.35826299999999994  0.8768589999999997  1.0000
  F   F7        1.0  0.5546899999999999  0.8582629999999998  0.8768589999999997  1.0000
