data_image0
_chemical_formula_structural       Li4Al3GaAl4Os4
_chemical_formula_sum              "Li4 Al7 Ga1 Os4"
_cell_length_a       8.5530024
_cell_length_b       8.5530024
_cell_length_c       4.2765012
_cell_angle_alpha    60.00000000000001
_cell_angle_beta     60.00000000000001
_cell_angle_gamma    59.99999999999999

_space_group_name_H-M_alt    "P 1"
_space_group_IT_number       1

loop_
  _space_group_symop_operation_xyz
  'x, y, z'

loop_
  _atom_site_type_symbol
  _atom_site_label
  _atom_site_symmetry_multiplicity
  _atom_site_fract_x
  _atom_site_fract_y
  _atom_site_fract_z
  _atom_site_occupancy
  Li  Li1       1.0  0.24999999999999997  0.2500000000000001  0.5  1.0000
  Li  Li2       1.0  0.24999999999999997  0.7500000000000001  0.5  1.0000
  Li  Li3       1.0  0.7499999999999999  0.2500000000000002  0.5  1.0000
  Li  Li4       1.0  0.7499999999999999  0.7500000000000001  0.5  1.0000
  Al  Al1       1.0  0.12500000000000003  0.125  0.25  1.0000
  Al  Al2       1.0  0.1250000000000001  0.6249999999999999  0.25000000000000006  1.0000
  Al  Al3       1.0  0.6250000000000001  0.125  0.25000000000000006  1.0000
  Ga  Ga1       1.0  0.6250000000000001  0.6250000000000001  0.25000000000000017  1.0000
  Al  Al4       1.0  0.3749999999999999  0.3750000000000003  0.75  1.0000
  Al  Al5       1.0  0.37499999999999994  0.8750000000000001  0.75  1.0000
  Al  Al6       1.0  0.875  0.37500000000000017  0.75  1.0000
  Al  Al7       1.0  0.8749999999999999  0.8750000000000004  0.7500000000000006  1.0000
  Os  Os1       1.0  0.0  0.0  0.0  1.0000
  Os  Os2       1.0  0.0  0.5  0.0  1.0000
  Os  Os3       1.0  0.5  0.0  0.0  1.0000
  Os  Os4       1.0  0.5  0.5  0.0  1.0000
