# generated using pymatgen
data_Hf7Pd8
_symmetry_space_group_name_H-M   'P 1'
_cell_length_a   6.57862400
_cell_length_b   8.81004600
_cell_length_c   5.42578849
_cell_angle_alpha   90.00000000
_cell_angle_beta   107.64499448
_cell_angle_gamma   90.00000000
_symmetry_Int_Tables_number   1
_chemical_formula_structural   Hf7Pd8
_chemical_formula_sum   'Hf7 Pd8'
_cell_volume   299.67295270
_cell_formula_units_Z   1
loop_
 _symmetry_equiv_pos_site_id
 _symmetry_equiv_pos_as_xyz
  1  'x, y, z'
loop_
 _atom_site_type_symbol
 _atom_site_label
 _atom_site_symmetry_multiplicity
 _atom_site_fract_x
 _atom_site_fract_y
 _atom_site_fract_z
 _atom_site_occupancy
  Hf  Hf0  1  0.42838050  0.37500000  0.71352200  1.0
  Hf  Hf1  1  0.42838050  0.87500000  0.71352200  1.0
  Hf  Hf2  1  0.92838050  0.87500000  0.71352200  1.0
  Hf  Hf3  1  0.07161950  0.12500000  0.28647800  1.0
  Hf  Hf4  1  0.07161950  0.62500000  0.28647800  1.0
  Hf  Hf5  1  0.57161950  0.12500000  0.28647800  1.0
  Hf  Hf6  1  0.57161950  0.62500000  0.28647800  1.0
  Pd  Pd7  1  0.29468900  0.37500000  0.17875600  1.0
  Pd  Pd8  1  0.29468900  0.87500000  0.17875600  1.0
  Pd  Pd9  1  0.79468900  0.37500000  0.17875600  1.0
  Pd  Pd10  1  0.79468900  0.87500000  0.17875600  1.0
  Pd  Pd11  1  0.20531100  0.12500000  0.82124400  1.0
  Pd  Pd12  1  0.20531100  0.62500000  0.82124400  1.0
  Pd  Pd13  1  0.70531100  0.12500000  0.82124400  1.0
  Pd  Pd14  1  0.70531100  0.62500000  0.82124400  1.0
