# generated using pymatgen
data_Rb11Ir4
_symmetry_space_group_name_H-M   'P 1'
_cell_length_a   11.79077648
_cell_length_b   11.79077648
_cell_length_c   5.89538824
_cell_angle_alpha   60.00000000
_cell_angle_beta   60.00000000
_cell_angle_gamma   60.00000000
_symmetry_Int_Tables_number   1
_chemical_formula_structural   Rb11Ir4
_chemical_formula_sum   'Rb11 Ir4'
_cell_volume   579.53841119
_cell_formula_units_Z   1
loop_
 _symmetry_equiv_pos_site_id
 _symmetry_equiv_pos_as_xyz
  1  'x, y, z'
loop_
 _atom_site_type_symbol
 _atom_site_label
 _atom_site_symmetry_multiplicity
 _atom_site_fract_x
 _atom_site_fract_y
 _atom_site_fract_z
 _atom_site_occupancy
  Rb  Rb0  1  0.12500000  0.12500000  0.25000000  1.0
  Rb  Rb1  1  0.12500000  0.62500000  0.25000000  1.0
  Rb  Rb2  1  0.62500000  0.12500000  0.25000000  1.0
  Rb  Rb3  1  0.37500000  0.37500000  0.75000000  1.0
  Rb  Rb4  1  0.37500000  0.87500000  0.75000000  1.0
  Rb  Rb5  1  0.87500000  0.37500000  0.75000000  1.0
  Rb  Rb6  1  0.87500000  0.87500000  0.75000000  1.0
  Rb  Rb7  1  0.25000000  0.25000000  0.50000000  1.0
  Rb  Rb8  1  0.25000000  0.75000000  0.50000000  1.0
  Rb  Rb9  1  0.75000000  0.25000000  0.50000000  1.0
  Rb  Rb10  1  0.75000000  0.75000000  0.50000000  1.0
  Ir  Ir11  1  0.00000000  0.00000000  0.00000000  1.0
  Ir  Ir12  1  0.00000000  0.50000000  0.00000000  1.0
  Ir  Ir13  1  0.50000000  0.00000000  0.00000000  1.0
  Ir  Ir14  1  0.50000000  0.50000000  0.00000000  1.0
