# generated using pymatgen
data_C
_symmetry_space_group_name_H-M   'P 1'
_cell_length_a   3.26306230
_cell_length_b   3.26306230
_cell_length_c   9.87987700
_cell_angle_alpha   90.00000000
_cell_angle_beta   90.00000000
_cell_angle_gamma   89.80104566
_symmetry_Int_Tables_number   1
_chemical_formula_structural   C
_chemical_formula_sum   C7
_cell_volume   105.19610281
_cell_formula_units_Z   7
loop_
 _symmetry_equiv_pos_site_id
 _symmetry_equiv_pos_as_xyz
  1  'x, y, z'
loop_
 _atom_site_type_symbol
 _atom_site_label
 _atom_site_symmetry_multiplicity
 _atom_site_fract_x
 _atom_site_fract_y
 _atom_site_fract_z
 _atom_site_occupancy
  C  C0  1  0.33439250  0.16560750  0.75000000  1.0
  C  C1  1  0.33439250  0.66560750  0.75000000  1.0
  C  C2  1  0.83439250  0.16560750  0.75000000  1.0
  C  C3  1  0.83439250  0.66560750  0.75000000  1.0
  C  C4  1  0.16560750  0.33439250  0.25000000  1.0
  C  C5  1  0.66560750  0.33439250  0.25000000  1.0
  C  C6  1  0.66560750  0.83439250  0.25000000  1.0
