# generated using pymatgen
data_V4S7
_symmetry_space_group_name_H-M   'P 1'
_cell_length_a   5.77010000
_cell_length_b   6.97986400
_cell_length_c   28.14962000
_cell_angle_alpha   90.00000000
_cell_angle_beta   90.00000000
_cell_angle_gamma   90.00000000
_symmetry_Int_Tables_number   1
_chemical_formula_structural   V4S7
_chemical_formula_sum   'V4 S7'
_cell_volume   1133.71224413
_cell_formula_units_Z   1
loop_
 _symmetry_equiv_pos_site_id
 _symmetry_equiv_pos_as_xyz
  1  'x, y, z'
loop_
 _atom_site_type_symbol
 _atom_site_label
 _atom_site_symmetry_multiplicity
 _atom_site_fract_x
 _atom_site_fract_y
 _atom_site_fract_z
 _atom_site_occupancy
  V  V0  1  0.25000000  0.25000000  0.50000000  1.0
  V  V1  1  0.25000000  0.75000000  0.50000000  1.0
  V  V2  1  0.75000000  0.25000000  0.50000000  1.0
  V  V3  1  0.75000000  0.75000000  0.50000000  1.0
  S  S4  1  0.00000000  0.25000000  0.43876600  1.0
  S  S5  1  0.00000000  0.75000000  0.43876600  1.0
  S  S6  1  0.50000000  0.75000000  0.43876600  1.0
  S  S7  1  0.00000000  0.25000000  0.56123400  1.0
  S  S8  1  0.00000000  0.75000000  0.56123400  1.0
  S  S9  1  0.50000000  0.25000000  0.56123400  1.0
  S  S10  1  0.50000000  0.75000000  0.56123400  1.0
