# generated using pymatgen
data_Sn4Te7Pb4
_symmetry_space_group_name_H-M   'P 1'
_cell_length_a   9.16943800
_cell_length_b   9.16943800
_cell_length_c   6.50602400
_cell_angle_alpha   90.00000000
_cell_angle_beta   90.00000000
_cell_angle_gamma   90.00000000
_symmetry_Int_Tables_number   1
_chemical_formula_structural   Sn4Te7Pb4
_chemical_formula_sum   'Sn4 Te7 Pb4'
_cell_volume   547.01734548
_cell_formula_units_Z   1
loop_
 _symmetry_equiv_pos_site_id
 _symmetry_equiv_pos_as_xyz
  1  'x, y, z'
loop_
 _atom_site_type_symbol
 _atom_site_label
 _atom_site_symmetry_multiplicity
 _atom_site_fract_x
 _atom_site_fract_y
 _atom_site_fract_z
 _atom_site_occupancy
  Sn  Sn0  1  0.25000000  0.25000000  0.50000000  1.0
  Sn  Sn1  1  0.25000000  0.75000000  0.50000000  1.0
  Sn  Sn2  1  0.75000000  0.25000000  0.50000000  1.0
  Sn  Sn3  1  0.75000000  0.75000000  0.50000000  1.0
  Te  Te4  1  0.00000000  0.00000000  0.50000000  1.0
  Te  Te5  1  0.50000000  0.00000000  0.50000000  1.0
  Te  Te6  1  0.50000000  0.50000000  0.50000000  1.0
  Te  Te7  1  0.25000000  0.25000000  0.00000000  1.0
  Te  Te8  1  0.25000000  0.75000000  0.00000000  1.0
  Te  Te9  1  0.75000000  0.25000000  0.00000000  1.0
  Te  Te10  1  0.75000000  0.75000000  0.00000000  1.0
  Pb  Pb11  1  0.00000000  0.00000000  0.00000000  1.0
  Pb  Pb12  1  0.00000000  0.50000000  0.00000000  1.0
  Pb  Pb13  1  0.50000000  0.00000000  0.00000000  1.0
  Pb  Pb14  1  0.50000000  0.50000000  0.00000000  1.0
