# generated using pymatgen
data_Ba4Bi11
_symmetry_space_group_name_H-M   'P 1'
_cell_length_a   10.35393400
_cell_length_b   10.35393400
_cell_length_c   5.17696700
_cell_angle_alpha   90.00000000
_cell_angle_beta   90.00000000
_cell_angle_gamma   90.00000000
_symmetry_Int_Tables_number   1
_chemical_formula_structural   Ba4Bi11
_chemical_formula_sum   'Ba4 Bi11'
_cell_volume   554.99130767
_cell_formula_units_Z   1
loop_
 _symmetry_equiv_pos_site_id
 _symmetry_equiv_pos_as_xyz
  1  'x, y, z'
loop_
 _atom_site_type_symbol
 _atom_site_label
 _atom_site_symmetry_multiplicity
 _atom_site_fract_x
 _atom_site_fract_y
 _atom_site_fract_z
 _atom_site_occupancy
  Ba  Ba0  1  0.00000000  0.00000000  0.00000000  1.0
  Ba  Ba1  1  0.00000000  0.50000000  0.00000000  1.0
  Ba  Ba2  1  0.50000000  0.00000000  0.00000000  1.0
  Ba  Ba3  1  0.50000000  0.50000000  0.00000000  1.0
  Bi  Bi4  1  0.00000000  0.25000000  0.50000000  1.0
  Bi  Bi5  1  0.00000000  0.75000000  0.50000000  1.0
  Bi  Bi6  1  0.50000000  0.25000000  0.50000000  1.0
  Bi  Bi7  1  0.50000000  0.75000000  0.50000000  1.0
  Bi  Bi8  1  0.25000000  0.00000000  0.50000000  1.0
  Bi  Bi9  1  0.25000000  0.50000000  0.50000000  1.0
  Bi  Bi10  1  0.75000000  0.50000000  0.50000000  1.0
  Bi  Bi11  1  0.25000000  0.25000000  0.00000000  1.0
  Bi  Bi12  1  0.25000000  0.75000000  0.00000000  1.0
  Bi  Bi13  1  0.75000000  0.25000000  0.00000000  1.0
  Bi  Bi14  1  0.75000000  0.75000000  0.00000000  1.0
