# generated using pymatgen
data_In3(AgAu2)4
_symmetry_space_group_name_H-M   'P 1'
_cell_length_a   21.26026000
_cell_length_b   22.55766312
_cell_length_c   11.27883156
_cell_angle_alpha   61.21812669
_cell_angle_beta   61.88501857
_cell_angle_gamma   61.88501857
_symmetry_Int_Tables_number   1
_chemical_formula_structural   In3(AgAu2)4
_chemical_formula_sum   'In3 Ag4 Au8'
_cell_volume   3967.08095464
_cell_formula_units_Z   1
loop_
 _symmetry_equiv_pos_site_id
 _symmetry_equiv_pos_as_xyz
  1  'x, y, z'
loop_
 _atom_site_type_symbol
 _atom_site_label
 _atom_site_symmetry_multiplicity
 _atom_site_fract_x
 _atom_site_fract_y
 _atom_site_fract_z
 _atom_site_occupancy
  In  In0  1  0.25000000  0.00000000  0.00000000  1.0
  In  In1  1  0.25000000  0.50000000  0.00000000  1.0
  In  In2  1  0.75000000  0.00000000  0.00000000  1.0
  Ag  Ag3  1  0.00000000  0.00000000  0.00000000  1.0
  Ag  Ag4  1  0.00000000  0.50000000  0.00000000  1.0
  Ag  Ag5  1  0.50000000  1.00000000  0.00000000  1.0
  Ag  Ag6  1  0.50000000  0.50000000  0.00000000  1.0
  Au  Au7  1  0.37522600  0.00000000  0.00000000  1.0
  Au  Au8  1  0.37522600  0.50000000  0.00000000  1.0
  Au  Au9  1  0.87522600  1.00000000  0.00000000  1.0
  Au  Au10  1  0.87522600  0.50000000  0.00000000  1.0
  Au  Au11  1  0.12477400  0.00000000  0.00000000  1.0
  Au  Au12  1  0.12477400  0.50000000  0.00000000  1.0
  Au  Au13  1  0.62477400  1.00000000  0.00000000  1.0
  Au  Au14  1  0.62477400  0.50000000  0.00000000  1.0
