# generated using pymatgen
data_K3(FeTc2)4
_symmetry_space_group_name_H-M   'P 1'
_cell_length_a   8.94377224
_cell_length_b   8.94377224
_cell_length_c   4.47188612
_cell_angle_alpha   60.00000000
_cell_angle_beta   60.00000000
_cell_angle_gamma   60.00000000
_symmetry_Int_Tables_number   1
_chemical_formula_structural   K3(FeTc2)4
_chemical_formula_sum   'K3 Fe4 Tc8'
_cell_volume   252.93981678
_cell_formula_units_Z   1
loop_
 _symmetry_equiv_pos_site_id
 _symmetry_equiv_pos_as_xyz
  1  'x, y, z'
loop_
 _atom_site_type_symbol
 _atom_site_label
 _atom_site_symmetry_multiplicity
 _atom_site_fract_x
 _atom_site_fract_y
 _atom_site_fract_z
 _atom_site_occupancy
  K  K0  1  0.12500000  0.12500000  0.25000000  1.0
  K  K1  1  0.12500000  0.62500000  0.25000000  1.0
  K  K2  1  0.62500000  0.62500000  0.25000000  1.0
  Fe  Fe3  1  0.25000000  0.25000000  0.50000000  1.0
  Fe  Fe4  1  0.25000000  0.75000000  0.50000000  1.0
  Fe  Fe5  1  0.75000000  0.25000000  0.50000000  1.0
  Fe  Fe6  1  0.75000000  0.75000000  0.50000000  1.0
  Tc  Tc7  1  0.00000000  0.00000000  0.00000000  1.0
  Tc  Tc8  1  1.00000000  0.50000000  0.00000000  1.0
  Tc  Tc9  1  0.50000000  0.00000000  0.00000000  1.0
  Tc  Tc10  1  0.50000000  0.50000000  0.00000000  1.0
  Tc  Tc11  1  0.37500000  0.37500000  0.75000000  1.0
  Tc  Tc12  1  0.37500000  0.87500000  0.75000000  1.0
  Tc  Tc13  1  0.87500000  0.37500000  0.75000000  1.0
  Tc  Tc14  1  0.87500000  0.87500000  0.75000000  1.0
