# generated using pymatgen
data_La4Yb3Zn8
_symmetry_space_group_name_H-M   'P 1'
_cell_length_a   10.46514360
_cell_length_b   10.46514360
_cell_length_c   5.23257180
_cell_angle_alpha   60.00000000
_cell_angle_beta   60.00000000
_cell_angle_gamma   60.00000000
_symmetry_Int_Tables_number   1
_chemical_formula_structural   La4Yb3Zn8
_chemical_formula_sum   'La4 Yb3 Zn8'
_cell_volume   405.21972966
_cell_formula_units_Z   1
loop_
 _symmetry_equiv_pos_site_id
 _symmetry_equiv_pos_as_xyz
  1  'x, y, z'
loop_
 _atom_site_type_symbol
 _atom_site_label
 _atom_site_symmetry_multiplicity
 _atom_site_fract_x
 _atom_site_fract_y
 _atom_site_fract_z
 _atom_site_occupancy
  La  La0  1  0.00000000  0.00000000  0.00000000  1.0
  La  La1  1  0.00000000  0.50000000  0.00000000  1.0
  La  La2  1  0.50000000  0.00000000  0.00000000  1.0
  La  La3  1  0.50000000  0.50000000  0.00000000  1.0
  Yb  Yb4  1  0.25000000  0.25000000  0.50000000  1.0
  Yb  Yb5  1  0.25000000  0.75000000  0.50000000  1.0
  Yb  Yb6  1  0.75000000  0.25000000  0.50000000  1.0
  Zn  Zn7  1  0.37500000  0.37500000  0.75000000  1.0
  Zn  Zn8  1  0.37500000  0.87500000  0.75000000  1.0
  Zn  Zn9  1  0.87500000  0.37500000  0.75000000  1.0
  Zn  Zn10  1  0.87500000  0.87500000  0.75000000  1.0
  Zn  Zn11  1  0.12500000  0.12500000  0.25000000  1.0
  Zn  Zn12  1  0.12500000  0.62500000  0.25000000  1.0
  Zn  Zn13  1  0.62500000  0.12500000  0.25000000  1.0
  Zn  Zn14  1  0.62500000  0.62500000  0.25000000  1.0
