# generated using pymatgen
data_Eu3(AgO2)4
_symmetry_space_group_name_H-M   'P 1'
_cell_length_a   7.37487201
_cell_length_b   7.37658810
_cell_length_c   6.46484205
_cell_angle_alpha   103.44295365
_cell_angle_beta   90.00000000
_cell_angle_gamma   119.99230460
_symmetry_Int_Tables_number   1
_chemical_formula_structural   Eu3(AgO2)4
_chemical_formula_sum   'Eu3 Ag4 O8'
_cell_volume   293.42331276
_cell_formula_units_Z   1
loop_
 _symmetry_equiv_pos_site_id
 _symmetry_equiv_pos_as_xyz
  1  'x, y, z'
loop_
 _atom_site_type_symbol
 _atom_site_label
 _atom_site_symmetry_multiplicity
 _atom_site_fract_x
 _atom_site_fract_y
 _atom_site_fract_z
 _atom_site_occupancy
  Eu  Eu0  1  0.25000000  0.00000000  0.50000000  1.0
  Eu  Eu1  1  0.25000000  0.50000000  0.50000000  1.0
  Eu  Eu2  1  0.75000000  0.50000000  0.50000000  1.0
  Ag  Ag3  1  0.00000000  0.00000000  0.00000000  1.0
  Ag  Ag4  1  0.00000000  0.50000000  0.00000000  1.0
  Ag  Ag5  1  0.50000000  0.00000000  0.00000000  1.0
  Ag  Ag6  1  0.50000000  0.50000000  0.00000000  1.0
  O  O7  1  0.43915800  0.37831600  0.66942600  1.0
  O  O8  1  0.43915800  0.87831600  0.66942600  1.0
  O  O9  1  0.93915800  0.37831600  0.66942600  1.0
  O  O10  1  0.93915800  0.87831600  0.66942600  1.0
  O  O11  1  0.06084200  0.12168400  0.33057400  1.0
  O  O12  1  0.06084200  0.62168400  0.33057400  1.0
  O  O13  1  0.56084200  0.12168400  0.33057400  1.0
  O  O14  1  0.56084200  0.62168400  0.33057400  1.0
