# generated using pymatgen
data_Li7(PtAu)4
_symmetry_space_group_name_H-M   'P 1'
_cell_length_a   19.77551199
_cell_length_b   20.62664094
_cell_length_c   10.31332047
_cell_angle_alpha   61.16646292
_cell_angle_beta   61.35585289
_cell_angle_gamma   61.35585289
_symmetry_Int_Tables_number   1
_chemical_formula_structural   Li7(PtAu)4
_chemical_formula_sum   'Li7 Pt4 Au4'
_cell_volume   3061.09987291
_cell_formula_units_Z   1
loop_
 _symmetry_equiv_pos_site_id
 _symmetry_equiv_pos_as_xyz
  1  'x, y, z'
loop_
 _atom_site_type_symbol
 _atom_site_label
 _atom_site_symmetry_multiplicity
 _atom_site_fract_x
 _atom_site_fract_y
 _atom_site_fract_z
 _atom_site_occupancy
  Li  Li0  1  0.37526350  0.00000000  1.00000000  1.0
  Li  Li1  1  0.37526350  0.50000000  1.00000000  1.0
  Li  Li2  1  0.87526350  0.00000000  1.00000000  1.0
  Li  Li3  1  0.12473650  0.00000000  0.00000000  1.0
  Li  Li4  1  0.12473650  0.50000000  0.00000000  1.0
  Li  Li5  1  0.62473650  0.00000000  0.00000000  1.0
  Li  Li6  1  0.62473650  0.50000000  1.00000000  1.0
  Pt  Pt7  1  0.00000000  0.00000000  0.00000000  1.0
  Pt  Pt8  1  0.00000000  0.50000000  0.00000000  1.0
  Pt  Pt9  1  0.50000000  0.00000000  0.00000000  1.0
  Pt  Pt10  1  0.50000000  0.50000000  1.00000000  1.0
  Au  Au11  1  0.25000000  0.00000000  0.00000000  1.0
  Au  Au12  1  0.25000000  0.50000000  0.00000000  1.0
  Au  Au13  1  0.75000000  0.00000000  0.00000000  1.0
  Au  Au14  1  0.75000000  0.50000000  1.00000000  1.0
