# generated using pymatgen
data_Ti8Zn3Mo4
_symmetry_space_group_name_H-M   'P 1'
_cell_length_a   20.03417199
_cell_length_b   21.13788476
_cell_length_c   10.56894238
_cell_angle_alpha   61.14061189
_cell_angle_beta   61.71273182
_cell_angle_gamma   61.71273182
_symmetry_Int_Tables_number   1
_chemical_formula_structural   Ti8Zn3Mo4
_chemical_formula_sum   'Ti8 Zn3 Mo4'
_cell_volume   3272.72733210
_cell_formula_units_Z   1
loop_
 _symmetry_equiv_pos_site_id
 _symmetry_equiv_pos_as_xyz
  1  'x, y, z'
loop_
 _atom_site_type_symbol
 _atom_site_label
 _atom_site_symmetry_multiplicity
 _atom_site_fract_x
 _atom_site_fract_y
 _atom_site_fract_z
 _atom_site_occupancy
  Ti  Ti0  1  0.35738700  0.00000000  0.00000000  1.0
  Ti  Ti1  1  0.35738700  0.50000000  1.00000000  1.0
  Ti  Ti2  1  0.85738700  1.00000000  1.00000000  1.0
  Ti  Ti3  1  0.85738700  0.50000000  0.00000000  1.0
  Ti  Ti4  1  0.14261300  0.00000000  0.00000000  1.0
  Ti  Ti5  1  0.14261300  0.50000000  0.00000000  1.0
  Ti  Ti6  1  0.64261300  0.00000000  0.00000000  1.0
  Ti  Ti7  1  0.64261300  0.50000000  0.00000000  1.0
  Zn  Zn8  1  0.00000000  0.50000000  0.00000000  1.0
  Zn  Zn9  1  0.50000000  0.00000000  0.00000000  1.0
  Zn  Zn10  1  0.50000000  0.50000000  0.00000000  1.0
  Mo  Mo11  1  0.25000000  0.00000000  0.00000000  1.0
  Mo  Mo12  1  0.25000000  0.50000000  0.00000000  1.0
  Mo  Mo13  1  0.75000000  1.00000000  0.00000000  1.0
  Mo  Mo14  1  0.75000000  0.50000000  0.00000000  1.0
