# generated using pymatgen
data_Ce3Pd8
_symmetry_space_group_name_H-M   'P 1'
_cell_length_a   7.91722400
_cell_length_b   7.91722400
_cell_length_c   5.14620242
_cell_angle_alpha   112.61983330
_cell_angle_beta   112.61983328
_cell_angle_gamma   90.00000002
_symmetry_Int_Tables_number   1
_chemical_formula_structural   Ce3Pd8
_chemical_formula_sum   'Ce3 Pd8'
_cell_volume   270.68432030
_cell_formula_units_Z   1
loop_
 _symmetry_equiv_pos_site_id
 _symmetry_equiv_pos_as_xyz
  1  'x, y, z'
loop_
 _atom_site_type_symbol
 _atom_site_label
 _atom_site_symmetry_multiplicity
 _atom_site_fract_x
 _atom_site_fract_y
 _atom_site_fract_z
 _atom_site_occupancy
  Ce  Ce0  1  0.00000000  0.00000000  0.00000000  1.0
  Ce  Ce1  1  0.50000000  0.00000000  0.00000000  1.0
  Ce  Ce2  1  0.50000000  0.50000000  0.00000000  1.0
  Pd  Pd3  1  0.37500000  0.12500000  0.50000000  1.0
  Pd  Pd4  1  0.37500000  0.62500000  0.50000000  1.0
  Pd  Pd5  1  0.87500000  0.12500000  0.50000000  1.0
  Pd  Pd6  1  0.87500000  0.62500000  0.50000000  1.0
  Pd  Pd7  1  0.12500000  0.37500000  0.50000000  1.0
  Pd  Pd8  1  0.12500000  0.87500000  0.50000000  1.0
  Pd  Pd9  1  0.62500000  0.37500000  0.50000000  1.0
  Pd  Pd10  1  0.62500000  0.87500000  0.50000000  1.0
