# generated using pymatgen
data_Tm8Mg4Cd3
_symmetry_space_group_name_H-M   'P 1'
_cell_length_a   10.52848338
_cell_length_b   10.52848338
_cell_length_c   5.26424169
_cell_angle_alpha   60.00000000
_cell_angle_beta   60.00000000
_cell_angle_gamma   60.00000000
_symmetry_Int_Tables_number   1
_chemical_formula_structural   Tm8Mg4Cd3
_chemical_formula_sum   'Tm8 Mg4 Cd3'
_cell_volume   412.62207072
_cell_formula_units_Z   1
loop_
 _symmetry_equiv_pos_site_id
 _symmetry_equiv_pos_as_xyz
  1  'x, y, z'
loop_
 _atom_site_type_symbol
 _atom_site_label
 _atom_site_symmetry_multiplicity
 _atom_site_fract_x
 _atom_site_fract_y
 _atom_site_fract_z
 _atom_site_occupancy
  Tm  Tm0  1  0.12500000  0.12500000  0.25000000  1.0
  Tm  Tm1  1  0.12500000  0.62500000  0.25000000  1.0
  Tm  Tm2  1  0.62500000  0.12500000  0.25000000  1.0
  Tm  Tm3  1  0.62500000  0.62500000  0.25000000  1.0
  Tm  Tm4  1  0.37500000  0.37500000  0.75000000  1.0
  Tm  Tm5  1  0.37500000  0.87500000  0.75000000  1.0
  Tm  Tm6  1  0.87500000  0.37500000  0.75000000  1.0
  Tm  Tm7  1  0.87500000  0.87500000  0.75000000  1.0
  Mg  Mg8  1  0.00000000  0.00000000  0.00000000  1.0
  Mg  Mg9  1  0.00000000  0.50000000  0.00000000  1.0
  Mg  Mg10  1  0.50000000  0.00000000  0.00000000  1.0
  Mg  Mg11  1  0.50000000  0.50000000  0.00000000  1.0
  Cd  Cd12  1  0.25000000  0.75000000  0.50000000  1.0
  Cd  Cd13  1  0.75000000  0.25000000  0.50000000  1.0
  Cd  Cd14  1  0.75000000  0.75000000  0.50000000  1.0
