# generated using pymatgen
data_Li8H4N3
_symmetry_space_group_name_H-M   'P 1'
_cell_length_a   7.20620284
_cell_length_b   7.20620284
_cell_length_c   3.67730056
_cell_angle_alpha   60.66525885
_cell_angle_beta   60.66525885
_cell_angle_gamma   60.00001068
_symmetry_Int_Tables_number   1
_chemical_formula_structural   Li8H4N3
_chemical_formula_sum   'Li8 H4 N3'
_cell_volume   136.37090206
_cell_formula_units_Z   1
loop_
 _symmetry_equiv_pos_site_id
 _symmetry_equiv_pos_as_xyz
  1  'x, y, z'
loop_
 _atom_site_type_symbol
 _atom_site_label
 _atom_site_symmetry_multiplicity
 _atom_site_fract_x
 _atom_site_fract_y
 _atom_site_fract_z
 _atom_site_occupancy
  Li  Li0  1  0.14110500  0.14110500  0.15337000  1.0
  Li  Li1  1  0.14110500  0.64110500  0.15337000  1.0
  Li  Li2  1  0.64110500  0.14110500  0.15337000  1.0
  Li  Li3  1  0.64110500  0.64110500  0.15337000  1.0
  Li  Li4  1  0.37362300  0.37362300  0.75826200  1.0
  Li  Li5  1  0.37362300  0.87362300  0.75826200  1.0
  Li  Li6  1  0.87362300  0.37362300  0.75826200  1.0
  Li  Li7  1  0.87362300  0.87362300  0.75826200  1.0
  H  H8  1  0.04425850  0.04425850  0.73444900  1.0
  H  H9  1  0.04425850  0.54425850  0.73444900  1.0
  H  H10  1  0.54425850  0.04425850  0.73444900  1.0
  H  H11  1  0.54425850  0.54425850  0.73444900  1.0
  N  N12  1  0.48751300  0.48751300  0.07492200  1.0
  N  N13  1  0.48751300  0.98751300  0.07492200  1.0
  N  N14  1  0.98751300  0.98751300  0.07492200  1.0
