# generated using pymatgen
data_Tl4In4S7
_symmetry_space_group_name_H-M   'P 1'
_cell_length_a   9.31331354
_cell_length_b   9.31331354
_cell_length_c   6.44394791
_cell_angle_alpha   105.50267077
_cell_angle_beta   110.07201569
_cell_angle_gamma   98.92857956
_symmetry_Int_Tables_number   1
_chemical_formula_structural   Tl4In4S7
_chemical_formula_sum   'Tl4 In4 S7'
_cell_volume   486.69331274
_cell_formula_units_Z   1
loop_
 _symmetry_equiv_pos_site_id
 _symmetry_equiv_pos_as_xyz
  1  'x, y, z'
loop_
 _atom_site_type_symbol
 _atom_site_label
 _atom_site_symmetry_multiplicity
 _atom_site_fract_x
 _atom_site_fract_y
 _atom_site_fract_z
 _atom_site_occupancy
  Tl  Tl0  1  0.00000000  0.00000000  0.00000000  1.0
  Tl  Tl1  1  0.00000000  0.50000000  0.00000000  1.0
  Tl  Tl2  1  0.50000000  0.00000000  0.00000000  1.0
  Tl  Tl3  1  0.50000000  0.50000000  1.00000000  1.0
  In  In4  1  0.25000000  0.00000000  0.50000000  1.0
  In  In5  1  0.25000000  0.50000000  0.50000000  1.0
  In  In6  1  0.75000000  0.00000000  0.50000000  1.0
  In  In7  1  0.75000000  0.50000000  0.50000000  1.0
  S  S8  1  0.17264500  0.24386650  0.83302300  1.0
  S  S9  1  0.17264500  0.74386650  0.83302300  1.0
  S  S10  1  0.67264500  0.24386650  0.83302300  1.0
  S  S11  1  0.67264500  0.74386650  0.83302300  1.0
  S  S12  1  0.32735500  0.25613350  0.16697700  1.0
  S  S13  1  0.32735500  0.75613350  0.16697700  1.0
  S  S14  1  0.82735500  0.25613350  0.16697700  1.0
