# generated using pymatgen
data_Co4Bi
_symmetry_space_group_name_H-M   'P 1'
_cell_length_a   7.72633601
_cell_length_b   7.72633601
_cell_length_c   4.64876231
_cell_angle_alpha   114.55112300
_cell_angle_beta   114.55112302
_cell_angle_gamma   89.99999999
_symmetry_Int_Tables_number   1
_chemical_formula_structural   Co4Bi
_chemical_formula_sum   'Co12 Bi3'
_cell_volume   224.54810953
_cell_formula_units_Z   3
loop_
 _symmetry_equiv_pos_site_id
 _symmetry_equiv_pos_as_xyz
  1  'x, y, z'
loop_
 _atom_site_type_symbol
 _atom_site_label
 _atom_site_symmetry_multiplicity
 _atom_site_fract_x
 _atom_site_fract_y
 _atom_site_fract_z
 _atom_site_occupancy
  Co  Co0  1  0.37500000  0.12500000  0.50000000  1.0
  Co  Co1  1  0.37500000  0.62500000  0.50000000  1.0
  Co  Co2  1  0.87500000  0.12500000  0.50000000  1.0
  Co  Co3  1  0.87500000  0.62500000  0.50000000  1.0
  Co  Co4  1  0.12500000  0.37500000  0.50000000  1.0
  Co  Co5  1  0.12500000  0.87500000  0.50000000  1.0
  Co  Co6  1  0.62500000  0.37500000  0.50000000  1.0
  Co  Co7  1  0.62500000  0.87500000  0.50000000  1.0
  Co  Co8  1  0.25000000  0.25000000  1.00000000  1.0
  Co  Co9  1  0.25000000  0.75000000  1.00000000  1.0
  Co  Co10  1  0.75000000  0.25000000  1.00000000  1.0
  Co  Co11  1  0.75000000  0.75000000  1.00000000  1.0
  Bi  Bi12  1  0.00000000  0.00000000  0.00000000  1.0
  Bi  Bi13  1  0.50000000  0.00000000  0.00000000  1.0
  Bi  Bi14  1  0.50000000  0.50000000  1.00000000  1.0
