# generated using pymatgen
data_Cd11Hg4
_symmetry_space_group_name_H-M   'P 1'
_cell_length_a   6.27391599
_cell_length_b   6.27391544
_cell_length_c   11.23318400
_cell_angle_alpha   90.00000000
_cell_angle_beta   90.00000000
_cell_angle_gamma   120.00000291
_symmetry_Int_Tables_number   1
_chemical_formula_structural   Cd11Hg4
_chemical_formula_sum   'Cd11 Hg4'
_cell_volume   382.92247016
_cell_formula_units_Z   1
loop_
 _symmetry_equiv_pos_site_id
 _symmetry_equiv_pos_as_xyz
  1  'x, y, z'
loop_
 _atom_site_type_symbol
 _atom_site_label
 _atom_site_symmetry_multiplicity
 _atom_site_fract_x
 _atom_site_fract_y
 _atom_site_fract_z
 _atom_site_occupancy
  Cd  Cd0  1  0.00000000  0.00000000  0.00000000  1.0
  Cd  Cd1  1  0.00000000  0.50000000  0.00000000  1.0
  Cd  Cd2  1  0.50000000  0.00000000  0.00000000  1.0
  Cd  Cd3  1  0.50000000  0.50000000  0.00000000  1.0
  Cd  Cd4  1  0.33333333  0.16666667  0.24490200  1.0
  Cd  Cd5  1  0.33333333  0.66666667  0.24490200  1.0
  Cd  Cd6  1  0.83333333  0.16666667  0.24490200  1.0
  Cd  Cd7  1  0.83333333  0.66666667  0.24490200  1.0
  Cd  Cd8  1  0.33333333  0.66666667  0.75509800  1.0
  Cd  Cd9  1  0.83333333  0.16666667  0.75509800  1.0
  Cd  Cd10  1  0.83333333  0.66666667  0.75509800  1.0
  Hg  Hg11  1  0.00000000  0.00000000  0.50000000  1.0
  Hg  Hg12  1  0.00000000  0.50000000  0.50000000  1.0
  Hg  Hg13  1  0.50000000  0.00000000  0.50000000  1.0
  Hg  Hg14  1  0.50000000  0.50000000  0.50000000  1.0
