# generated using pymatgen
data_Sc8Ga4Cu3
_symmetry_space_group_name_H-M   'P 1'
_cell_length_a   9.36859068
_cell_length_b   9.36859068
_cell_length_c   4.68429534
_cell_angle_alpha   60.00000000
_cell_angle_beta   60.00000000
_cell_angle_gamma   60.00000000
_symmetry_Int_Tables_number   1
_chemical_formula_structural   Sc8Ga4Cu3
_chemical_formula_sum   'Sc8 Ga4 Cu3'
_cell_volume   290.72193512
_cell_formula_units_Z   1
loop_
 _symmetry_equiv_pos_site_id
 _symmetry_equiv_pos_as_xyz
  1  'x, y, z'
loop_
 _atom_site_type_symbol
 _atom_site_label
 _atom_site_symmetry_multiplicity
 _atom_site_fract_x
 _atom_site_fract_y
 _atom_site_fract_z
 _atom_site_occupancy
  Sc  Sc0  1  0.37500000  0.37500000  0.75000000  1.0
  Sc  Sc1  1  0.37500000  0.87500000  0.75000000  1.0
  Sc  Sc2  1  0.87500000  0.37500000  0.75000000  1.0
  Sc  Sc3  1  0.87500000  0.87500000  0.75000000  1.0
  Sc  Sc4  1  0.12500000  0.12500000  0.25000000  1.0
  Sc  Sc5  1  0.12500000  0.62500000  0.25000000  1.0
  Sc  Sc6  1  0.62500000  0.12500000  0.25000000  1.0
  Sc  Sc7  1  0.62500000  0.62500000  0.25000000  1.0
  Ga  Ga8  1  0.00000000  0.00000000  0.00000000  1.0
  Ga  Ga9  1  0.00000000  0.50000000  0.00000000  1.0
  Ga  Ga10  1  0.50000000  0.00000000  0.00000000  1.0
  Ga  Ga11  1  0.50000000  0.50000000  0.00000000  1.0
  Cu  Cu12  1  0.25000000  0.75000000  0.50000000  1.0
  Cu  Cu13  1  0.75000000  0.25000000  0.50000000  1.0
  Cu  Cu14  1  0.75000000  0.75000000  0.50000000  1.0
