# generated using pymatgen
data_Ho3(SbRh2)4
_symmetry_space_group_name_H-M   'P 1'
_cell_length_a   9.41558216
_cell_length_b   9.41558216
_cell_length_c   4.70779108
_cell_angle_alpha   60.00000000
_cell_angle_beta   60.00000000
_cell_angle_gamma   60.00000000
_symmetry_Int_Tables_number   1
_chemical_formula_structural   Ho3(SbRh2)4
_chemical_formula_sum   'Ho3 Sb4 Rh8'
_cell_volume   295.11857050
_cell_formula_units_Z   1
loop_
 _symmetry_equiv_pos_site_id
 _symmetry_equiv_pos_as_xyz
  1  'x, y, z'
loop_
 _atom_site_type_symbol
 _atom_site_label
 _atom_site_symmetry_multiplicity
 _atom_site_fract_x
 _atom_site_fract_y
 _atom_site_fract_z
 _atom_site_occupancy
  Ho  Ho0  1  0.25000000  0.25000000  0.50000000  1.0
  Ho  Ho1  1  0.75000000  0.25000000  0.50000000  1.0
  Ho  Ho2  1  0.75000000  0.75000000  0.50000000  1.0
  Sb  Sb3  1  0.00000000  0.00000000  0.00000000  1.0
  Sb  Sb4  1  0.00000000  0.50000000  0.00000000  1.0
  Sb  Sb5  1  0.50000000  0.00000000  0.00000000  1.0
  Sb  Sb6  1  0.50000000  0.50000000  0.00000000  1.0
  Rh  Rh7  1  0.37500000  0.37500000  0.75000000  1.0
  Rh  Rh8  1  0.37500000  0.87500000  0.75000000  1.0
  Rh  Rh9  1  0.87500000  0.37500000  0.75000000  1.0
  Rh  Rh10  1  0.87500000  0.87500000  0.75000000  1.0
  Rh  Rh11  1  0.12500000  0.12500000  0.25000000  1.0
  Rh  Rh12  1  0.12500000  0.62500000  0.25000000  1.0
  Rh  Rh13  1  0.62500000  0.12500000  0.25000000  1.0
  Rh  Rh14  1  0.62500000  0.62500000  0.25000000  1.0
