# generated using pymatgen
data_U11Ge4
_symmetry_space_group_name_H-M   'P 1'
_cell_length_a   8.59340800
_cell_length_b   8.59340800
_cell_length_c   4.29670400
_cell_angle_alpha   90.00000000
_cell_angle_beta   90.00000000
_cell_angle_gamma   90.00000000
_symmetry_Int_Tables_number   1
_chemical_formula_structural   U11Ge4
_chemical_formula_sum   'U11 Ge4'
_cell_volume   317.29724394
_cell_formula_units_Z   1
loop_
 _symmetry_equiv_pos_site_id
 _symmetry_equiv_pos_as_xyz
  1  'x, y, z'
loop_
 _atom_site_type_symbol
 _atom_site_label
 _atom_site_symmetry_multiplicity
 _atom_site_fract_x
 _atom_site_fract_y
 _atom_site_fract_z
 _atom_site_occupancy
  U  U0  1  0.00000000  0.25000000  0.50000000  1.0
  U  U1  1  0.00000000  0.75000000  0.50000000  1.0
  U  U2  1  0.50000000  0.25000000  0.50000000  1.0
  U  U3  1  0.50000000  0.75000000  0.50000000  1.0
  U  U4  1  0.25000000  0.00000000  0.50000000  1.0
  U  U5  1  0.25000000  0.50000000  0.50000000  1.0
  U  U6  1  0.75000000  0.00000000  0.50000000  1.0
  U  U7  1  0.75000000  0.50000000  0.50000000  1.0
  U  U8  1  0.25000000  0.75000000  0.00000000  1.0
  U  U9  1  0.75000000  0.25000000  0.00000000  1.0
  U  U10  1  0.75000000  0.75000000  0.00000000  1.0
  Ge  Ge11  1  0.00000000  0.00000000  0.00000000  1.0
  Ge  Ge12  1  0.00000000  0.50000000  0.00000000  1.0
  Ge  Ge13  1  0.50000000  0.00000000  0.00000000  1.0
  Ge  Ge14  1  0.50000000  0.50000000  0.00000000  1.0
