# generated using pymatgen
data_Mn7(SbTe)4
_symmetry_space_group_name_H-M   'P 1'
_cell_length_a   8.31651601
_cell_length_b   8.31651590
_cell_length_c   5.70795100
_cell_angle_alpha   90.00000000
_cell_angle_beta   90.00000000
_cell_angle_gamma   120.00000044
_symmetry_Int_Tables_number   1
_chemical_formula_structural   Mn7(SbTe)4
_chemical_formula_sum   'Mn7 Sb4 Te4'
_cell_volume   341.89576089
_cell_formula_units_Z   1
loop_
 _symmetry_equiv_pos_site_id
 _symmetry_equiv_pos_as_xyz
  1  'x, y, z'
loop_
 _atom_site_type_symbol
 _atom_site_label
 _atom_site_symmetry_multiplicity
 _atom_site_fract_x
 _atom_site_fract_y
 _atom_site_fract_z
 _atom_site_occupancy
  Mn  Mn0  1  0.00000000  0.00000000  0.25778200  1.0
  Mn  Mn1  1  0.00000000  0.50000000  0.25778200  1.0
  Mn  Mn2  1  0.50000000  0.00000000  0.25778200  1.0
  Mn  Mn3  1  0.50000000  0.50000000  0.25778200  1.0
  Mn  Mn4  1  0.00000000  0.00000000  0.74221800  1.0
  Mn  Mn5  1  0.00000000  0.50000000  0.74221800  1.0
  Mn  Mn6  1  0.50000000  0.50000000  0.74221800  1.0
  Sb  Sb7  1  0.16666667  0.33333333  0.50000000  1.0
  Sb  Sb8  1  0.16666667  0.83333333  0.50000000  1.0
  Sb  Sb9  1  0.66666667  0.33333333  0.50000000  1.0
  Sb  Sb10  1  0.66666667  0.83333333  0.50000000  1.0
  Te  Te11  1  0.33333333  0.16666667  0.00000000  1.0
  Te  Te12  1  0.33333333  0.66666667  0.00000000  1.0
  Te  Te13  1  0.83333333  0.16666667  0.00000000  1.0
  Te  Te14  1  0.83333333  0.66666667  0.00000000  1.0
