# generated using pymatgen
data_TbY4
_symmetry_space_group_name_H-M   'P 1'
_cell_length_a   10.10672600
_cell_length_b   10.10672600
_cell_length_c   5.05336300
_cell_angle_alpha   90.00000000
_cell_angle_beta   90.00000000
_cell_angle_gamma   90.00000000
_symmetry_Int_Tables_number   1
_chemical_formula_structural   TbY4
_chemical_formula_sum   'Tb3 Y12'
_cell_volume   516.18036441
_cell_formula_units_Z   3
loop_
 _symmetry_equiv_pos_site_id
 _symmetry_equiv_pos_as_xyz
  1  'x, y, z'
loop_
 _atom_site_type_symbol
 _atom_site_label
 _atom_site_symmetry_multiplicity
 _atom_site_fract_x
 _atom_site_fract_y
 _atom_site_fract_z
 _atom_site_occupancy
  Tb  Tb0  1  0.00000000  0.50000000  0.00000000  1.0
  Tb  Tb1  1  0.50000000  0.00000000  0.00000000  1.0
  Tb  Tb2  1  0.50000000  0.50000000  0.00000000  1.0
  Y  Y3  1  0.00000000  0.25000000  0.50000000  1.0
  Y  Y4  1  0.00000000  0.75000000  0.50000000  1.0
  Y  Y5  1  0.50000000  0.25000000  0.50000000  1.0
  Y  Y6  1  0.50000000  0.75000000  0.50000000  1.0
  Y  Y7  1  0.25000000  0.00000000  0.50000000  1.0
  Y  Y8  1  0.25000000  0.50000000  0.50000000  1.0
  Y  Y9  1  0.75000000  0.00000000  0.50000000  1.0
  Y  Y10  1  0.75000000  0.50000000  0.50000000  1.0
  Y  Y11  1  0.25000000  0.25000000  0.00000000  1.0
  Y  Y12  1  0.25000000  0.75000000  0.00000000  1.0
  Y  Y13  1  0.75000000  0.25000000  0.00000000  1.0
  Y  Y14  1  0.75000000  0.75000000  0.00000000  1.0
