# generated using pymatgen
data_Li3(ScRh2)4
_symmetry_space_group_name_H-M   'P 1'
_cell_length_a   18.95493999
_cell_length_b   21.02345334
_cell_length_c   10.51172667
_cell_angle_alpha   62.07195235
_cell_angle_beta   63.20468044
_cell_angle_gamma   63.20468043
_symmetry_Int_Tables_number   1
_chemical_formula_structural   Li3(ScRh2)4
_chemical_formula_sum   'Li3 Sc4 Rh8'
_cell_volume   3147.40623354
_cell_formula_units_Z   1
loop_
 _symmetry_equiv_pos_site_id
 _symmetry_equiv_pos_as_xyz
  1  'x, y, z'
loop_
 _atom_site_type_symbol
 _atom_site_label
 _atom_site_symmetry_multiplicity
 _atom_site_fract_x
 _atom_site_fract_y
 _atom_site_fract_z
 _atom_site_occupancy
  Li  Li0  1  0.00000000  0.00000000  0.00000000  1.0
  Li  Li1  1  0.00000000  0.50000000  0.00000000  1.0
  Li  Li2  1  0.50000000  0.50000000  0.00000000  1.0
  Sc  Sc3  1  0.25000000  0.50000000  0.00000000  1.0
  Sc  Sc4  1  0.25000000  0.00000000  0.00000000  1.0
  Sc  Sc5  1  0.75000000  0.50000000  0.00000000  1.0
  Sc  Sc6  1  0.75000000  0.00000000  0.00000000  1.0
  Rh  Rh7  1  0.36546300  0.00000000  0.00000000  1.0
  Rh  Rh8  1  0.36546300  0.50000000  0.00000000  1.0
  Rh  Rh9  1  0.86546300  0.00000000  0.00000000  1.0
  Rh  Rh10  1  0.86546300  0.50000000  0.00000000  1.0
  Rh  Rh11  1  0.13453700  0.50000000  0.00000000  1.0
  Rh  Rh12  1  0.13453700  0.00000000  0.00000000  1.0
  Rh  Rh13  1  0.63453700  0.50000000  0.00000000  1.0
  Rh  Rh14  1  0.63453700  0.00000000  0.00000000  1.0
