# generated using pymatgen
data_Mg8Pb3
_symmetry_space_group_name_H-M   'P 1'
_cell_length_a   9.78271200
_cell_length_b   9.78271200
_cell_length_c   4.89135600
_cell_angle_alpha   60.00000000
_cell_angle_beta   60.00000000
_cell_angle_gamma   60.00000000
_symmetry_Int_Tables_number   1
_chemical_formula_structural   Mg8Pb3
_chemical_formula_sum   'Mg8 Pb3'
_cell_volume   331.00367162
_cell_formula_units_Z   1
loop_
 _symmetry_equiv_pos_site_id
 _symmetry_equiv_pos_as_xyz
  1  'x, y, z'
loop_
 _atom_site_type_symbol
 _atom_site_label
 _atom_site_symmetry_multiplicity
 _atom_site_fract_x
 _atom_site_fract_y
 _atom_site_fract_z
 _atom_site_occupancy
  Mg  Mg0  1  0.12500000  0.12500000  0.25000000  1.0
  Mg  Mg1  1  0.12500000  0.62500000  0.25000000  1.0
  Mg  Mg2  1  0.62500000  0.12500000  0.25000000  1.0
  Mg  Mg3  1  0.62500000  0.62500000  0.25000000  1.0
  Mg  Mg4  1  0.37500000  0.37500000  0.75000000  1.0
  Mg  Mg5  1  0.37500000  0.87500000  0.75000000  1.0
  Mg  Mg6  1  0.87500000  0.37500000  0.75000000  1.0
  Mg  Mg7  1  0.87500000  0.87500000  0.75000000  1.0
  Pb  Pb8  1  0.00000000  0.00000000  0.00000000  1.0
  Pb  Pb9  1  0.00000000  0.50000000  0.00000000  1.0
  Pb  Pb10  1  0.50000000  0.50000000  1.00000000  1.0
