# generated using pymatgen
data_Ge7W4
_symmetry_space_group_name_H-M   'P 1'
_cell_length_a   6.68428001
_cell_length_b   6.68428001
_cell_length_c   4.77266132
_cell_angle_alpha   110.49549859
_cell_angle_beta   110.49549859
_cell_angle_gamma   90.00000000
_symmetry_Int_Tables_number   1
_chemical_formula_structural   Ge7W4
_chemical_formula_sum   'Ge7 W4'
_cell_volume   185.26333270
_cell_formula_units_Z   1
loop_
 _symmetry_equiv_pos_site_id
 _symmetry_equiv_pos_as_xyz
  1  'x, y, z'
loop_
 _atom_site_type_symbol
 _atom_site_label
 _atom_site_symmetry_multiplicity
 _atom_site_fract_x
 _atom_site_fract_y
 _atom_site_fract_z
 _atom_site_occupancy
  Ge  Ge0  1  0.16864000  0.16864000  0.67456000  1.0
  Ge  Ge1  1  0.16864000  0.66864000  0.67456000  1.0
  Ge  Ge2  1  0.66864000  0.16864000  0.67456000  1.0
  Ge  Ge3  1  0.66864000  0.66864000  0.67456000  1.0
  Ge  Ge4  1  0.33136000  0.83136000  0.32544000  1.0
  Ge  Ge5  1  0.83136000  0.33136000  0.32544000  1.0
  Ge  Ge6  1  0.83136000  0.83136000  0.32544000  1.0
  W  W7  1  0.00000000  0.00000000  0.00000000  1.0
  W  W8  1  0.00000000  0.50000000  0.00000000  1.0
  W  W9  1  0.50000000  0.00000000  0.00000000  1.0
  W  W10  1  0.50000000  0.50000000  0.00000000  1.0
