# generated using pymatgen
data_Na4Tl7Ag4
_symmetry_space_group_name_H-M   'P 1'
_cell_length_a   23.46309601
_cell_length_b   25.49013764
_cell_length_c   12.74506882
_cell_angle_alpha   61.72559140
_cell_angle_beta   62.59748806
_cell_angle_gamma   62.59748806
_symmetry_Int_Tables_number   1
_chemical_formula_structural   Na4Tl7Ag4
_chemical_formula_sum   'Na4 Tl7 Ag4'
_cell_volume   5666.62683679
_cell_formula_units_Z   1
loop_
 _symmetry_equiv_pos_site_id
 _symmetry_equiv_pos_as_xyz
  1  'x, y, z'
loop_
 _atom_site_type_symbol
 _atom_site_label
 _atom_site_symmetry_multiplicity
 _atom_site_fract_x
 _atom_site_fract_y
 _atom_site_fract_z
 _atom_site_occupancy
  Na  Na0  1  0.00000000  0.00000000  0.00000000  1.0
  Na  Na1  1  1.00000000  0.50000000  1.00000000  1.0
  Na  Na2  1  0.50000000  0.00000000  1.00000000  1.0
  Na  Na3  1  0.50000000  0.50000000  1.00000000  1.0
  Tl  Tl4  1  0.36725400  0.00000000  0.00000000  1.0
  Tl  Tl5  1  0.36725400  0.50000000  1.00000000  1.0
  Tl  Tl6  1  0.86725400  0.00000000  1.00000000  1.0
  Tl  Tl7  1  0.13274600  0.50000000  0.00000000  1.0
  Tl  Tl8  1  0.13274600  0.00000000  1.00000000  1.0
  Tl  Tl9  1  0.63274600  0.50000000  1.00000000  1.0
  Tl  Tl10  1  0.63274600  0.00000000  1.00000000  1.0
  Ag  Ag11  1  0.25000000  0.00000000  0.00000000  1.0
  Ag  Ag12  1  0.25000000  0.50000000  1.00000000  1.0
  Ag  Ag13  1  0.75000000  0.00000000  1.00000000  1.0
  Ag  Ag14  1  0.75000000  0.50000000  1.00000000  1.0
