# generated using pymatgen
data_Y4Bi3Au8
_symmetry_space_group_name_H-M   'P 1'
_cell_length_a   21.82086000
_cell_length_b   23.64475836
_cell_length_c   11.82237918
_cell_angle_alpha   61.68815172
_cell_angle_beta   62.52049903
_cell_angle_gamma   62.52049904
_symmetry_Int_Tables_number   1
_chemical_formula_structural   Y4Bi3Au8
_chemical_formula_sum   'Y4 Bi3 Au8'
_cell_volume   4528.59179112
_cell_formula_units_Z   1
loop_
 _symmetry_equiv_pos_site_id
 _symmetry_equiv_pos_as_xyz
  1  'x, y, z'
loop_
 _atom_site_type_symbol
 _atom_site_label
 _atom_site_symmetry_multiplicity
 _atom_site_fract_x
 _atom_site_fract_y
 _atom_site_fract_z
 _atom_site_occupancy
  Y  Y0  1  0.00000000  0.00000000  0.00000000  1.0
  Y  Y1  1  0.00000000  0.50000000  1.00000000  1.0
  Y  Y2  1  0.50000000  0.00000000  1.00000000  1.0
  Y  Y3  1  0.50000000  0.50000000  1.00000000  1.0
  Bi  Bi4  1  0.25000000  0.00000000  1.00000000  1.0
  Bi  Bi5  1  0.75000000  0.50000000  1.00000000  1.0
  Bi  Bi6  1  0.75000000  0.00000000  1.00000000  1.0
  Au  Au7  1  0.37752250  0.00000000  0.00000000  1.0
  Au  Au8  1  0.37752250  0.50000000  1.00000000  1.0
  Au  Au9  1  0.87752250  0.00000000  1.00000000  1.0
  Au  Au10  1  0.87752250  0.50000000  1.00000000  1.0
  Au  Au11  1  0.12247750  0.50000000  0.00000000  1.0
  Au  Au12  1  0.12247750  0.00000000  1.00000000  1.0
  Au  Au13  1  0.62247750  0.50000000  1.00000000  1.0
  Au  Au14  1  0.62247750  0.00000000  1.00000000  1.0
