# generated using pymatgen
data_Nd8Ir4Au3
_symmetry_space_group_name_H-M   'P 1'
_cell_length_a   10.26930330
_cell_length_b   10.26930330
_cell_length_c   5.13465165
_cell_angle_alpha   60.00000000
_cell_angle_beta   60.00000000
_cell_angle_gamma   60.00000000
_symmetry_Int_Tables_number   1
_chemical_formula_structural   Nd8Ir4Au3
_chemical_formula_sum   'Nd8 Ir4 Au3'
_cell_volume   382.89346032
_cell_formula_units_Z   1
loop_
 _symmetry_equiv_pos_site_id
 _symmetry_equiv_pos_as_xyz
  1  'x, y, z'
loop_
 _atom_site_type_symbol
 _atom_site_label
 _atom_site_symmetry_multiplicity
 _atom_site_fract_x
 _atom_site_fract_y
 _atom_site_fract_z
 _atom_site_occupancy
  Nd  Nd0  1  0.37500000  0.37500000  0.75000000  1.0
  Nd  Nd1  1  0.37500000  0.87500000  0.75000000  1.0
  Nd  Nd2  1  0.87500000  0.37500000  0.75000000  1.0
  Nd  Nd3  1  0.87500000  0.87500000  0.75000000  1.0
  Nd  Nd4  1  0.12500000  0.12500000  0.25000000  1.0
  Nd  Nd5  1  0.12500000  0.62500000  0.25000000  1.0
  Nd  Nd6  1  0.62500000  0.12500000  0.25000000  1.0
  Nd  Nd7  1  0.62500000  0.62500000  0.25000000  1.0
  Ir  Ir8  1  0.00000000  0.00000000  0.00000000  1.0
  Ir  Ir9  1  0.00000000  0.50000000  0.00000000  1.0
  Ir  Ir10  1  0.50000000  0.00000000  0.00000000  1.0
  Ir  Ir11  1  0.50000000  0.50000000  0.00000000  1.0
  Au  Au12  1  0.25000000  0.25000000  0.50000000  1.0
  Au  Au13  1  0.75000000  0.25000000  0.50000000  1.0
  Au  Au14  1  0.75000000  0.75000000  0.50000000  1.0
