# generated using pymatgen
data_Re4Ir11
_symmetry_space_group_name_H-M   'P 1'
_cell_length_a   5.48708045
_cell_length_b   5.48708045
_cell_length_c   9.13682315
_cell_angle_alpha   81.36516850
_cell_angle_beta   81.36516850
_cell_angle_gamma   59.99999455
_symmetry_Int_Tables_number   1
_chemical_formula_structural   Re4Ir11
_chemical_formula_sum   'Re4 Ir11'
_cell_volume   234.62923766
_cell_formula_units_Z   1
loop_
 _symmetry_equiv_pos_site_id
 _symmetry_equiv_pos_as_xyz
  1  'x, y, z'
loop_
 _atom_site_type_symbol
 _atom_site_label
 _atom_site_symmetry_multiplicity
 _atom_site_fract_x
 _atom_site_fract_y
 _atom_site_fract_z
 _atom_site_occupancy
  Re  Re0  1  0.00000000  0.00000000  0.00000000  1.0
  Re  Re1  1  0.00000000  0.50000000  0.00000000  1.0
  Re  Re2  1  0.50000000  0.00000000  0.00000000  1.0
  Re  Re3  1  0.50000000  0.50000000  0.00000000  1.0
  Ir  Ir4  1  0.12561200  0.12561200  0.24632800  1.0
  Ir  Ir5  1  0.12561200  0.62561200  0.24632800  1.0
  Ir  Ir6  1  0.62561200  0.12561200  0.24632800  1.0
  Ir  Ir7  1  0.62561200  0.62561200  0.24632800  1.0
  Ir  Ir8  1  0.25000000  0.25000000  0.50000000  1.0
  Ir  Ir9  1  0.25000000  0.75000000  0.50000000  1.0
  Ir  Ir10  1  0.75000000  0.25000000  0.50000000  1.0
  Ir  Ir11  1  0.37438800  0.37438800  0.75367200  1.0
  Ir  Ir12  1  0.37438800  0.87438800  0.75367200  1.0
  Ir  Ir13  1  0.87438800  0.37438800  0.75367200  1.0
  Ir  Ir14  1  0.87438800  0.87438800  0.75367200  1.0
