# generated using pymatgen
data_Nd11Mg4
_symmetry_space_group_name_H-M   'P 1'
_cell_length_a   10.02311601
_cell_length_b   10.02311601
_cell_length_c   6.20635057
_cell_angle_alpha   113.81246581
_cell_angle_beta   113.81246580
_cell_angle_gamma   90.00000000
_symmetry_Int_Tables_number   1
_chemical_formula_structural   Nd11Mg4
_chemical_formula_sum   'Nd11 Mg4'
_cell_volume   511.87703029
_cell_formula_units_Z   1
loop_
 _symmetry_equiv_pos_site_id
 _symmetry_equiv_pos_as_xyz
  1  'x, y, z'
loop_
 _atom_site_type_symbol
 _atom_site_label
 _atom_site_symmetry_multiplicity
 _atom_site_fract_x
 _atom_site_fract_y
 _atom_site_fract_z
 _atom_site_occupancy
  Nd  Nd0  1  0.25000000  0.25000000  1.00000000  1.0
  Nd  Nd1  1  0.25000000  0.75000000  1.00000000  1.0
  Nd  Nd2  1  0.75000000  0.25000000  1.00000000  1.0
  Nd  Nd3  1  0.75000000  0.75000000  1.00000000  1.0
  Nd  Nd4  1  0.37500000  0.12500000  0.50000000  1.0
  Nd  Nd5  1  0.37500000  0.62500000  0.50000000  1.0
  Nd  Nd6  1  0.87500000  0.12500000  0.50000000  1.0
  Nd  Nd7  1  0.87500000  0.62500000  0.50000000  1.0
  Nd  Nd8  1  0.12500000  0.87500000  0.50000000  1.0
  Nd  Nd9  1  0.62500000  0.37500000  0.50000000  1.0
  Nd  Nd10  1  0.62500000  0.87500000  0.50000000  1.0
  Mg  Mg11  1  0.00000000  0.00000000  0.00000000  1.0
  Mg  Mg12  1  0.00000000  0.50000000  0.00000000  1.0
  Mg  Mg13  1  0.50000000  0.00000000  0.00000000  1.0
  Mg  Mg14  1  0.50000000  0.50000000  0.00000000  1.0
