# generated using pymatgen
data_Zr8Tc3Pd4
_symmetry_space_group_name_H-M   'P 1'
_cell_length_a   9.40212168
_cell_length_b   9.40212168
_cell_length_c   4.70106084
_cell_angle_alpha   60.00000000
_cell_angle_beta   60.00000000
_cell_angle_gamma   60.00000000
_symmetry_Int_Tables_number   1
_chemical_formula_structural   Zr8Tc3Pd4
_chemical_formula_sum   'Zr8 Tc3 Pd4'
_cell_volume   293.85467796
_cell_formula_units_Z   1
loop_
 _symmetry_equiv_pos_site_id
 _symmetry_equiv_pos_as_xyz
  1  'x, y, z'
loop_
 _atom_site_type_symbol
 _atom_site_label
 _atom_site_symmetry_multiplicity
 _atom_site_fract_x
 _atom_site_fract_y
 _atom_site_fract_z
 _atom_site_occupancy
  Zr  Zr0  1  0.37500000  0.37500000  0.75000000  1.0
  Zr  Zr1  1  0.37500000  0.87500000  0.75000000  1.0
  Zr  Zr2  1  0.87500000  0.37500000  0.75000000  1.0
  Zr  Zr3  1  0.87500000  0.87500000  0.75000000  1.0
  Zr  Zr4  1  0.12500000  0.12500000  0.25000000  1.0
  Zr  Zr5  1  0.12500000  0.62500000  0.25000000  1.0
  Zr  Zr6  1  0.62500000  0.12500000  0.25000000  1.0
  Zr  Zr7  1  0.62500000  0.62500000  0.25000000  1.0
  Tc  Tc8  1  0.00000000  0.00000000  0.00000000  1.0
  Tc  Tc9  1  0.00000000  0.50000000  0.00000000  1.0
  Tc  Tc10  1  0.50000000  0.00000000  0.00000000  1.0
  Pd  Pd11  1  0.25000000  0.25000000  0.50000000  1.0
  Pd  Pd12  1  0.25000000  0.75000000  0.50000000  1.0
  Pd  Pd13  1  0.75000000  0.25000000  0.50000000  1.0
  Pd  Pd14  1  0.75000000  0.75000000  0.50000000  1.0
