# generated using pymatgen
data_Li7(PmGa)4
_symmetry_space_group_name_H-M   'P 1'
_cell_length_a   9.51799102
_cell_length_b   9.51799102
_cell_length_c   4.75899551
_cell_angle_alpha   60.00000000
_cell_angle_beta   60.00000000
_cell_angle_gamma   60.00000000
_symmetry_Int_Tables_number   1
_chemical_formula_structural   Li7(PmGa)4
_chemical_formula_sum   'Li7 Pm4 Ga4'
_cell_volume   304.85328462
_cell_formula_units_Z   1
loop_
 _symmetry_equiv_pos_site_id
 _symmetry_equiv_pos_as_xyz
  1  'x, y, z'
loop_
 _atom_site_type_symbol
 _atom_site_label
 _atom_site_symmetry_multiplicity
 _atom_site_fract_x
 _atom_site_fract_y
 _atom_site_fract_z
 _atom_site_occupancy
  Li  Li0  1  0.37500000  0.87500000  0.75000000  1.0
  Li  Li1  1  0.87500000  0.37500000  0.75000000  1.0
  Li  Li2  1  0.87500000  0.87500000  0.75000000  1.0
  Li  Li3  1  0.12500000  0.12500000  0.25000000  1.0
  Li  Li4  1  0.12500000  0.62500000  0.25000000  1.0
  Li  Li5  1  0.62500000  0.12500000  0.25000000  1.0
  Li  Li6  1  0.62500000  0.62500000  0.25000000  1.0
  Pm  Pm7  1  0.00000000  0.00000000  0.00000000  1.0
  Pm  Pm8  1  0.00000000  0.50000000  0.00000000  1.0
  Pm  Pm9  1  0.50000000  0.00000000  0.00000000  1.0
  Pm  Pm10  1  0.50000000  0.50000000  0.00000000  1.0
  Ga  Ga11  1  0.25000000  0.25000000  0.50000000  1.0
  Ga  Ga12  1  0.25000000  0.75000000  0.50000000  1.0
  Ga  Ga13  1  0.75000000  0.25000000  0.50000000  1.0
  Ga  Ga14  1  0.75000000  0.75000000  0.50000000  1.0
