# generated using pymatgen
data_Co4Sn4Rh7
_symmetry_space_group_name_H-M   'P 1'
_cell_length_a   8.16947600
_cell_length_b   9.20425210
_cell_length_c   4.08473800
_cell_angle_alpha   116.34583090
_cell_angle_beta   89.99999999
_cell_angle_gamma   116.34583091
_symmetry_Int_Tables_number   1
_chemical_formula_structural   Co4Sn4Rh7
_chemical_formula_sum   'Co4 Sn4 Rh7'
_cell_volume   239.12255564
_cell_formula_units_Z   1
loop_
 _symmetry_equiv_pos_site_id
 _symmetry_equiv_pos_as_xyz
  1  'x, y, z'
loop_
 _atom_site_type_symbol
 _atom_site_label
 _atom_site_symmetry_multiplicity
 _atom_site_fract_x
 _atom_site_fract_y
 _atom_site_fract_z
 _atom_site_occupancy
  Co  Co0  1  0.00000000  0.00000000  0.00000000  1.0
  Co  Co1  1  0.00000000  0.50000000  0.00000000  1.0
  Co  Co2  1  0.50000000  0.00000000  0.00000000  1.0
  Co  Co3  1  0.50000000  0.50000000  0.00000000  1.0
  Sn  Sn4  1  0.25000000  0.00000000  0.50000000  1.0
  Sn  Sn5  1  0.25000000  0.50000000  0.50000000  1.0
  Sn  Sn6  1  0.75000000  0.00000000  0.50000000  1.0
  Sn  Sn7  1  0.75000000  0.50000000  0.50000000  1.0
  Rh  Rh8  1  0.37500000  0.75000000  0.25000000  1.0
  Rh  Rh9  1  0.87500000  0.25000000  0.25000000  1.0
  Rh  Rh10  1  0.87500000  0.75000000  0.25000000  1.0
  Rh  Rh11  1  0.12500000  0.25000000  0.75000000  1.0
  Rh  Rh12  1  0.12500000  0.75000000  0.75000000  1.0
  Rh  Rh13  1  0.62500000  0.25000000  0.75000000  1.0
  Rh  Rh14  1  0.62500000  0.75000000  0.75000000  1.0
