# generated using pymatgen
data_Eu4Ho11
_symmetry_space_group_name_H-M   'P 1'
_cell_length_a   9.74397599
_cell_length_b   9.74397599
_cell_length_c   5.98674237
_cell_angle_alpha   114.01012564
_cell_angle_beta   114.01012565
_cell_angle_gamma   90.00000000
_symmetry_Int_Tables_number   1
_chemical_formula_structural   Eu4Ho11
_chemical_formula_sum   'Eu4 Ho11'
_cell_volume   464.87175163
_cell_formula_units_Z   1
loop_
 _symmetry_equiv_pos_site_id
 _symmetry_equiv_pos_as_xyz
  1  'x, y, z'
loop_
 _atom_site_type_symbol
 _atom_site_label
 _atom_site_symmetry_multiplicity
 _atom_site_fract_x
 _atom_site_fract_y
 _atom_site_fract_z
 _atom_site_occupancy
  Eu  Eu0  1  0.00000000  0.00000000  0.00000000  1.0
  Eu  Eu1  1  0.00000000  0.50000000  1.00000000  1.0
  Eu  Eu2  1  0.50000000  0.00000000  0.00000000  1.0
  Eu  Eu3  1  0.50000000  0.50000000  1.00000000  1.0
  Ho  Ho4  1  0.37500000  0.12500000  0.50000000  1.0
  Ho  Ho5  1  0.37500000  0.62500000  0.50000000  1.0
  Ho  Ho6  1  0.87500000  0.12500000  0.50000000  1.0
  Ho  Ho7  1  0.87500000  0.62500000  0.50000000  1.0
  Ho  Ho8  1  0.12500000  0.87500000  0.50000000  1.0
  Ho  Ho9  1  0.62500000  0.37500000  0.50000000  1.0
  Ho  Ho10  1  0.62500000  0.87500000  0.50000000  1.0
  Ho  Ho11  1  0.25000000  0.25000000  1.00000000  1.0
  Ho  Ho12  1  0.25000000  0.75000000  1.00000000  1.0
  Ho  Ho13  1  0.75000000  0.25000000  1.00000000  1.0
  Ho  Ho14  1  0.75000000  0.75000000  1.00000000  1.0
