# generated using pymatgen
data_Ta8Cu4Os3
_symmetry_space_group_name_H-M   'P 1'
_cell_length_a   19.52305600
_cell_length_b   20.91388886
_cell_length_c   10.45694443
_cell_angle_alpha   61.40506062
_cell_angle_beta   62.17655382
_cell_angle_gamma   62.17655382
_symmetry_Int_Tables_number   1
_chemical_formula_structural   Ta8Cu4Os3
_chemical_formula_sum   'Ta8 Cu4 Os3'
_cell_volume   3148.39705384
_cell_formula_units_Z   1
loop_
 _symmetry_equiv_pos_site_id
 _symmetry_equiv_pos_as_xyz
  1  'x, y, z'
loop_
 _atom_site_type_symbol
 _atom_site_label
 _atom_site_symmetry_multiplicity
 _atom_site_fract_x
 _atom_site_fract_y
 _atom_site_fract_z
 _atom_site_occupancy
  Ta  Ta0  1  0.36678700  0.50000000  1.00000000  1.0
  Ta  Ta1  1  0.36678700  0.00000000  1.00000000  1.0
  Ta  Ta2  1  0.86678700  0.50000000  1.00000000  1.0
  Ta  Ta3  1  0.86678700  0.00000000  1.00000000  1.0
  Ta  Ta4  1  0.13321300  0.50000000  0.00000000  1.0
  Ta  Ta5  1  0.13321300  0.00000000  1.00000000  1.0
  Ta  Ta6  1  0.63321300  0.50000000  1.00000000  1.0
  Ta  Ta7  1  0.63321300  0.00000000  1.00000000  1.0
  Cu  Cu8  1  0.00000000  0.00000000  0.00000000  1.0
  Cu  Cu9  1  0.00000000  0.50000000  0.00000000  1.0
  Cu  Cu10  1  0.50000000  0.00000000  0.00000000  1.0
  Cu  Cu11  1  0.50000000  0.50000000  1.00000000  1.0
  Os  Os12  1  0.25000000  0.50000000  1.00000000  1.0
  Os  Os13  1  0.25000000  0.00000000  1.00000000  1.0
  Os  Os14  1  0.75000000  0.00000000  1.00000000  1.0
