# generated using pymatgen
data_Ba3(Hg2Bi)4
_symmetry_space_group_name_H-M   'P 1'
_cell_length_a   11.38400622
_cell_length_b   11.38400622
_cell_length_c   5.69200311
_cell_angle_alpha   60.00000000
_cell_angle_beta   60.00000000
_cell_angle_gamma   60.00000000
_symmetry_Int_Tables_number   1
_chemical_formula_structural   Ba3(Hg2Bi)4
_chemical_formula_sum   'Ba3 Hg8 Bi4'
_cell_volume   521.60335914
_cell_formula_units_Z   1
loop_
 _symmetry_equiv_pos_site_id
 _symmetry_equiv_pos_as_xyz
  1  'x, y, z'
loop_
 _atom_site_type_symbol
 _atom_site_label
 _atom_site_symmetry_multiplicity
 _atom_site_fract_x
 _atom_site_fract_y
 _atom_site_fract_z
 _atom_site_occupancy
  Ba  Ba0  1  0.25000000  0.25000000  0.50000000  1.0
  Ba  Ba1  1  0.75000000  0.25000000  0.50000000  1.0
  Ba  Ba2  1  0.75000000  0.75000000  0.50000000  1.0
  Hg  Hg3  1  0.37500000  0.37500000  0.75000000  1.0
  Hg  Hg4  1  0.37500000  0.87500000  0.75000000  1.0
  Hg  Hg5  1  0.87500000  0.37500000  0.75000000  1.0
  Hg  Hg6  1  0.87500000  0.87500000  0.75000000  1.0
  Hg  Hg7  1  0.12500000  0.12500000  0.25000000  1.0
  Hg  Hg8  1  0.12500000  0.62500000  0.25000000  1.0
  Hg  Hg9  1  0.62500000  0.12500000  0.25000000  1.0
  Hg  Hg10  1  0.62500000  0.62500000  0.25000000  1.0
  Bi  Bi11  1  0.00000000  0.00000000  0.00000000  1.0
  Bi  Bi12  1  0.00000000  0.50000000  0.00000000  1.0
  Bi  Bi13  1  0.50000000  0.00000000  0.00000000  1.0
  Bi  Bi14  1  0.50000000  0.50000000  0.00000000  1.0
