# generated using pymatgen
data_Pm8Ni4Rh3
_symmetry_space_group_name_H-M   'P 1'
_cell_length_a   9.87143694
_cell_length_b   9.87143694
_cell_length_c   4.93571847
_cell_angle_alpha   60.00000000
_cell_angle_beta   60.00000000
_cell_angle_gamma   60.00000000
_symmetry_Int_Tables_number   1
_chemical_formula_structural   Pm8Ni4Rh3
_chemical_formula_sum   'Pm8 Ni4 Rh3'
_cell_volume   340.09177838
_cell_formula_units_Z   1
loop_
 _symmetry_equiv_pos_site_id
 _symmetry_equiv_pos_as_xyz
  1  'x, y, z'
loop_
 _atom_site_type_symbol
 _atom_site_label
 _atom_site_symmetry_multiplicity
 _atom_site_fract_x
 _atom_site_fract_y
 _atom_site_fract_z
 _atom_site_occupancy
  Pm  Pm0  1  0.12500000  0.12500000  0.25000000  1.0
  Pm  Pm1  1  0.12500000  0.62500000  0.25000000  1.0
  Pm  Pm2  1  0.62500000  0.12500000  0.25000000  1.0
  Pm  Pm3  1  0.62500000  0.62500000  0.25000000  1.0
  Pm  Pm4  1  0.37500000  0.37500000  0.75000000  1.0
  Pm  Pm5  1  0.37500000  0.87500000  0.75000000  1.0
  Pm  Pm6  1  0.87500000  0.37500000  0.75000000  1.0
  Pm  Pm7  1  0.87500000  0.87500000  0.75000000  1.0
  Ni  Ni8  1  0.00000000  0.00000000  0.00000000  1.0
  Ni  Ni9  1  0.00000000  0.50000000  0.00000000  1.0
  Ni  Ni10  1  0.50000000  0.00000000  0.00000000  1.0
  Ni  Ni11  1  0.50000000  0.50000000  0.00000000  1.0
  Rh  Rh12  1  0.25000000  0.25000000  0.50000000  1.0
  Rh  Rh13  1  0.25000000  0.75000000  0.50000000  1.0
  Rh  Rh14  1  0.75000000  0.75000000  0.50000000  1.0
