# generated using pymatgen
data_Sr4Ta8Mn3
_symmetry_space_group_name_H-M   'P 1'
_cell_length_a   9.45810474
_cell_length_b   9.45810474
_cell_length_c   4.72905237
_cell_angle_alpha   60.00000000
_cell_angle_beta   60.00000000
_cell_angle_gamma   60.00000000
_symmetry_Int_Tables_number   1
_chemical_formula_structural   Sr4Ta8Mn3
_chemical_formula_sum   'Sr4 Ta8 Mn3'
_cell_volume   299.13509207
_cell_formula_units_Z   1
loop_
 _symmetry_equiv_pos_site_id
 _symmetry_equiv_pos_as_xyz
  1  'x, y, z'
loop_
 _atom_site_type_symbol
 _atom_site_label
 _atom_site_symmetry_multiplicity
 _atom_site_fract_x
 _atom_site_fract_y
 _atom_site_fract_z
 _atom_site_occupancy
  Sr  Sr0  1  0.25000000  0.25000000  0.50000000  1.0
  Sr  Sr1  1  0.25000000  0.75000000  0.50000000  1.0
  Sr  Sr2  1  0.75000000  0.25000000  0.50000000  1.0
  Sr  Sr3  1  0.75000000  0.75000000  0.50000000  1.0
  Ta  Ta4  1  0.12500000  0.12500000  0.25000000  1.0
  Ta  Ta5  1  0.12500000  0.62500000  0.25000000  1.0
  Ta  Ta6  1  0.62500000  0.12500000  0.25000000  1.0
  Ta  Ta7  1  0.62500000  0.62500000  0.25000000  1.0
  Ta  Ta8  1  0.37500000  0.37500000  0.75000000  1.0
  Ta  Ta9  1  0.37500000  0.87500000  0.75000000  1.0
  Ta  Ta10  1  0.87500000  0.37500000  0.75000000  1.0
  Ta  Ta11  1  0.87500000  0.87500000  0.75000000  1.0
  Mn  Mn12  1  0.00000000  0.00000000  0.00000000  1.0
  Mn  Mn13  1  0.50000000  0.00000000  0.00000000  1.0
  Mn  Mn14  1  0.50000000  0.50000000  0.00000000  1.0
