# generated using pymatgen
data_Mn3(GaIr2)4
_symmetry_space_group_name_H-M   'P 1'
_cell_length_a   6.12946000
_cell_length_b   6.12946000
_cell_length_c   6.07653400
_cell_angle_alpha   90.00000000
_cell_angle_beta   90.00000000
_cell_angle_gamma   90.00000000
_symmetry_Int_Tables_number   1
_chemical_formula_structural   Mn3(GaIr2)4
_chemical_formula_sum   'Mn3 Ga4 Ir8'
_cell_volume   228.29708315
_cell_formula_units_Z   1
loop_
 _symmetry_equiv_pos_site_id
 _symmetry_equiv_pos_as_xyz
  1  'x, y, z'
loop_
 _atom_site_type_symbol
 _atom_site_label
 _atom_site_symmetry_multiplicity
 _atom_site_fract_x
 _atom_site_fract_y
 _atom_site_fract_z
 _atom_site_occupancy
  Mn  Mn0  1  0.00000000  0.00000000  0.50000000  1.0
  Mn  Mn1  1  0.00000000  0.50000000  0.50000000  1.0
  Mn  Mn2  1  0.50000000  0.50000000  0.50000000  1.0
  Ga  Ga3  1  0.00000000  0.00000000  0.00000000  1.0
  Ga  Ga4  1  0.00000000  0.50000000  0.00000000  1.0
  Ga  Ga5  1  0.50000000  0.00000000  0.00000000  1.0
  Ga  Ga6  1  0.50000000  0.50000000  0.00000000  1.0
  Ir  Ir7  1  0.25000000  0.25000000  0.24805500  1.0
  Ir  Ir8  1  0.25000000  0.75000000  0.24805500  1.0
  Ir  Ir9  1  0.75000000  0.25000000  0.24805500  1.0
  Ir  Ir10  1  0.75000000  0.75000000  0.24805500  1.0
  Ir  Ir11  1  0.25000000  0.25000000  0.75194500  1.0
  Ir  Ir12  1  0.25000000  0.75000000  0.75194500  1.0
  Ir  Ir13  1  0.75000000  0.25000000  0.75194500  1.0
  Ir  Ir14  1  0.75000000  0.75000000  0.75194500  1.0
