# generated using pymatgen
data_Be4F7
_symmetry_space_group_name_H-M   'P 1'
_cell_length_a   4.79179600
_cell_length_b   8.67539178
_cell_length_c   4.33769589
_cell_angle_alpha   115.99936493
_cell_angle_beta   90.00000000
_cell_angle_gamma   90.00000000
_symmetry_Int_Tables_number   1
_chemical_formula_structural   Be4F7
_chemical_formula_sum   'Be4 F7'
_cell_volume   162.07239614
_cell_formula_units_Z   1
loop_
 _symmetry_equiv_pos_site_id
 _symmetry_equiv_pos_as_xyz
  1  'x, y, z'
loop_
 _atom_site_type_symbol
 _atom_site_label
 _atom_site_symmetry_multiplicity
 _atom_site_fract_x
 _atom_site_fract_y
 _atom_site_fract_z
 _atom_site_occupancy
  Be  Be0  1  0.00000000  0.00000000  0.00000000  1.0
  Be  Be1  1  0.00000000  0.50000000  0.00000000  1.0
  Be  Be2  1  0.50000000  0.00000000  0.00000000  1.0
  Be  Be3  1  0.50000000  0.50000000  0.00000000  1.0
  F  F4  1  0.25000000  0.57397300  0.85205400  1.0
  F  F5  1  0.75000000  0.07397300  0.85205400  1.0
  F  F6  1  0.75000000  0.57397300  0.85205400  1.0
  F  F7  1  0.25000000  0.42602700  0.14794600  1.0
  F  F8  1  0.25000000  0.92602700  0.14794600  1.0
  F  F9  1  0.75000000  0.42602700  0.14794600  1.0
  F  F10  1  0.75000000  0.92602700  0.14794600  1.0
