# generated using pymatgen
data_Sr8Zn4Ga3
_symmetry_space_group_name_H-M   'P 1'
_cell_length_a   25.21019201
_cell_length_b   25.38119908
_cell_length_c   12.69059954
_cell_angle_alpha   61.72745191
_cell_angle_beta   60.22262718
_cell_angle_gamma   60.22262717
_symmetry_Int_Tables_number   1
_chemical_formula_structural   Sr8Zn4Ga3
_chemical_formula_sum   'Sr8 Zn4 Ga3'
_cell_volume   5833.08755523
_cell_formula_units_Z   1
loop_
 _symmetry_equiv_pos_site_id
 _symmetry_equiv_pos_as_xyz
  1  'x, y, z'
loop_
 _atom_site_type_symbol
 _atom_site_label
 _atom_site_symmetry_multiplicity
 _atom_site_fract_x
 _atom_site_fract_y
 _atom_site_fract_z
 _atom_site_occupancy
  Sr  Sr0  1  0.00000000  0.36642900  0.26714200  1.0
  Sr  Sr1  1  0.00000000  0.86642900  0.26714200  1.0
  Sr  Sr2  1  0.50000000  0.36642900  0.26714200  1.0
  Sr  Sr3  1  0.50000000  0.86642900  0.26714200  1.0
  Sr  Sr4  1  0.00000000  0.13357100  0.73285800  1.0
  Sr  Sr5  1  0.00000000  0.63357100  0.73285800  1.0
  Sr  Sr6  1  0.50000000  0.13357100  0.73285800  1.0
  Sr  Sr7  1  0.50000000  0.63357100  0.73285800  1.0
  Zn  Zn8  1  0.00000000  0.00000000  0.00000000  1.0
  Zn  Zn9  1  0.00000000  0.50000000  1.00000000  1.0
  Zn  Zn10  1  0.50000000  0.00000000  0.00000000  1.0
  Zn  Zn11  1  0.50000000  0.50000000  1.00000000  1.0
  Ga  Ga12  1  0.00000000  0.25000000  0.50000000  1.0
  Ga  Ga13  1  0.00000000  0.75000000  0.50000000  1.0
  Ga  Ga14  1  0.50000000  0.25000000  0.50000000  1.0
