# generated using pymatgen
data_Fe11Ni4
_symmetry_space_group_name_H-M   'P 1'
_cell_length_a   8.06867952
_cell_length_b   8.06867952
_cell_length_c   4.03433976
_cell_angle_alpha   60.00000000
_cell_angle_beta   60.00000000
_cell_angle_gamma   60.00000000
_symmetry_Int_Tables_number   1
_chemical_formula_structural   Fe11Ni4
_chemical_formula_sum   'Fe11 Ni4'
_cell_volume   185.72159496
_cell_formula_units_Z   1
loop_
 _symmetry_equiv_pos_site_id
 _symmetry_equiv_pos_as_xyz
  1  'x, y, z'
loop_
 _atom_site_type_symbol
 _atom_site_label
 _atom_site_symmetry_multiplicity
 _atom_site_fract_x
 _atom_site_fract_y
 _atom_site_fract_z
 _atom_site_occupancy
  Fe  Fe0  1  0.12500000  0.12500000  0.25000000  1.0
  Fe  Fe1  1  0.62500000  0.12500000  0.25000000  1.0
  Fe  Fe2  1  0.62500000  0.62500000  0.25000000  1.0
  Fe  Fe3  1  0.37500000  0.37500000  0.75000000  1.0
  Fe  Fe4  1  0.37500000  0.87500000  0.75000000  1.0
  Fe  Fe5  1  0.87500000  0.37500000  0.75000000  1.0
  Fe  Fe6  1  0.87500000  0.87500000  0.75000000  1.0
  Fe  Fe7  1  0.25000000  0.25000000  0.50000000  1.0
  Fe  Fe8  1  0.25000000  0.75000000  0.50000000  1.0
  Fe  Fe9  1  0.75000000  0.25000000  0.50000000  1.0
  Fe  Fe10  1  0.75000000  0.75000000  0.50000000  1.0
  Ni  Ni11  1  0.00000000  0.00000000  0.00000000  1.0
  Ni  Ni12  1  0.00000000  0.50000000  0.00000000  1.0
  Ni  Ni13  1  0.50000000  0.00000000  0.00000000  1.0
  Ni  Ni14  1  0.50000000  0.50000000  0.00000000  1.0
