# generated using pymatgen
data_La3(CeHg2)4
_symmetry_space_group_name_H-M   'P 1'
_cell_length_a   10.91262340
_cell_length_b   10.91262340
_cell_length_c   5.45631170
_cell_angle_alpha   60.00000000
_cell_angle_beta   60.00000000
_cell_angle_gamma   60.00000000
_symmetry_Int_Tables_number   1
_chemical_formula_structural   La3(CeHg2)4
_chemical_formula_sum   'La3 Ce4 Hg8'
_cell_volume   459.45450030
_cell_formula_units_Z   1
loop_
 _symmetry_equiv_pos_site_id
 _symmetry_equiv_pos_as_xyz
  1  'x, y, z'
loop_
 _atom_site_type_symbol
 _atom_site_label
 _atom_site_symmetry_multiplicity
 _atom_site_fract_x
 _atom_site_fract_y
 _atom_site_fract_z
 _atom_site_occupancy
  La  La0  1  0.00000000  0.00000000  0.00000000  1.0
  La  La1  1  0.50000000  0.00000000  0.00000000  1.0
  La  La2  1  0.50000000  0.50000000  0.00000000  1.0
  Ce  Ce3  1  0.25000000  0.25000000  0.50000000  1.0
  Ce  Ce4  1  0.25000000  0.75000000  0.50000000  1.0
  Ce  Ce5  1  0.75000000  0.25000000  0.50000000  1.0
  Ce  Ce6  1  0.75000000  0.75000000  0.50000000  1.0
  Hg  Hg7  1  0.37500000  0.37500000  0.75000000  1.0
  Hg  Hg8  1  0.37500000  0.87500000  0.75000000  1.0
  Hg  Hg9  1  0.87500000  0.37500000  0.75000000  1.0
  Hg  Hg10  1  0.87500000  0.87500000  0.75000000  1.0
  Hg  Hg11  1  0.12500000  0.12500000  0.25000000  1.0
  Hg  Hg12  1  0.12500000  0.62500000  0.25000000  1.0
  Hg  Hg13  1  0.62500000  0.12500000  0.25000000  1.0
  Hg  Hg14  1  0.62500000  0.62500000  0.25000000  1.0
