# generated using pymatgen
data_Sc8Al4Cd3
_symmetry_space_group_name_H-M   'P 1'
_cell_length_a   9.82860042
_cell_length_b   9.82860042
_cell_length_c   4.91430021
_cell_angle_alpha   60.00000000
_cell_angle_beta   60.00000000
_cell_angle_gamma   60.00000000
_symmetry_Int_Tables_number   1
_chemical_formula_structural   Sc8Al4Cd3
_chemical_formula_sum   'Sc8 Al4 Cd3'
_cell_volume   335.68353833
_cell_formula_units_Z   1
loop_
 _symmetry_equiv_pos_site_id
 _symmetry_equiv_pos_as_xyz
  1  'x, y, z'
loop_
 _atom_site_type_symbol
 _atom_site_label
 _atom_site_symmetry_multiplicity
 _atom_site_fract_x
 _atom_site_fract_y
 _atom_site_fract_z
 _atom_site_occupancy
  Sc  Sc0  1  0.37500000  0.37500000  0.75000000  1.0
  Sc  Sc1  1  0.37500000  0.87500000  0.75000000  1.0
  Sc  Sc2  1  0.87500000  0.37500000  0.75000000  1.0
  Sc  Sc3  1  0.87500000  0.87500000  0.75000000  1.0
  Sc  Sc4  1  0.12500000  0.12500000  0.25000000  1.0
  Sc  Sc5  1  0.12500000  0.62500000  0.25000000  1.0
  Sc  Sc6  1  0.62500000  0.12500000  0.25000000  1.0
  Sc  Sc7  1  0.62500000  0.62500000  0.25000000  1.0
  Al  Al8  1  0.25000000  0.25000000  0.50000000  1.0
  Al  Al9  1  0.25000000  0.75000000  0.50000000  1.0
  Al  Al10  1  0.75000000  0.25000000  0.50000000  1.0
  Al  Al11  1  0.75000000  0.75000000  0.50000000  1.0
  Cd  Cd12  1  0.00000000  0.50000000  0.00000000  1.0
  Cd  Cd13  1  0.50000000  0.00000000  0.00000000  1.0
  Cd  Cd14  1  0.50000000  0.50000000  0.00000000  1.0
